 Abaqus/Standard 2023                  DATE 20-9ÔÂ-2023 TIME 16:41:50
 SUMMARY OF JOB INFORMATION:
 STEP  INC ATT SEVERE EQUIL TOTAL  TOTAL      STEP       INC OF       DOF    IF
               DISCON ITERS ITERS  TIME/    TIME/LPF    TIME/LPF    MONITOR RIKS
               ITERS               FREQ
   1     1   1     0     1     1  0.0100     0.0100     0.01000   
   1     2   1     0     1     1  0.0200     0.0200     0.01000   
   1     3   1     0     1     1  0.0350     0.0350     0.01500   
   1     4   1     0     1     1  0.0575     0.0575     0.02250   
   1     5   1     0     1     1  0.0912     0.0912     0.03375   
   1     6   1     0     1     1  0.100      0.100      0.008750  
   2     1   1     0     2     2  0.110      0.0100     0.01000   
   2     2   1     0     1     1  0.120      0.0200     0.01000   
   2     3   1     0     1     1  0.135      0.0350     0.01500   
   2     4   1     0     1     1  0.158      0.0575     0.02250   
   2     5   1     0     1     1  0.191      0.0912     0.03375   
   2     6   1     0     1     1  0.242      0.142      0.05063   
   2     7   1     0     1     1  0.318      0.218      0.07594   
   2     8   1     0     1     1  0.432      0.332      0.1139    
   2     9   1     0     2     2  0.603      0.503      0.1709    
   2    10   1     0     2     2  0.859      0.759      0.2563    
   2    11   1     0     1     1  1.10       1.00       0.2411    
                          
 THE ANALYSIS HAS COMPLETED SUCCESSFULLY
