1

   Abaqus 2023                                  Date 20-9ÔÂ-2023   Time 16:41:42
   For use by Supplied by Team-SolidSQUAD under license from Dassault Systemes or its subsidiary.



                         The Abaqus Software is a product of:

                           Dassault Systemes SIMULIA Corp.
                           1301 Atwood Avenue, Suite 101W
                              Johnston, RI 02919, USA
 


                   The Abaqus Software is available only under license
                   from Dassault Systemes or its subsidiary and may be
                   used or reproduced only in accordance with the terms
                   of such license.
 
                          On machine WIN-325EI4A781T 
                          you are authorized to run
                          Abaqus/Standard until 31-Dec-2055

                          Your site id is:  


 
                    For assistance or any other information you may
                    obtain contact information for your local office
                    from the world wide web at:

                      http://www.3ds.com/products/simulia/locations/

 
                * * * * * * * * * * * * * * * * * * * * * * * * * * * * * * 
                *                                                         * 
                *                   *****************                     * 
                *                   *  N O T I C E  *                     * 
                *                   *****************                     * 
                *                                                         * 
                *                                                         * 
                *                       Abaqus 2023                       * 
                *                                                         * 
                *          BUILD ID: 2022_09_29-02.11.55 183150           * 
                *                                                         * 
                *                                                         * 
                *  Please make sure you are using                         * 
                *  release Abaqus 2023 manuals                            * 
                *  plus the notes accompanying this release.              * 
                *                                                         * 
                *                                                         * 
                *                                                         * 
                *                                                         * 
                * * * * * * * * * * * * * * * * * * * * * * * * * * * * * * 


 



     PROCESSING PART, INSTANCE, AND ASSEMBLY INFORMATION
   *******************************************************


     END PROCESSING PART, INSTANCE, AND ASSEMBLY INFORMATION
   ***********************************************************




     OPTIONS BEING PROCESSED
   ***************************


  *Heading
  *Node
  *Element, type=S3

 ***NOTE: ELEMENT TYPES S3 AND S3R ARE IDENTICAL. ELEMENT TYPE S3 WILL BE 
          REFERRED TO AS S3R FROM HERE ON
  *Element, type=S4R
  *Nset, nset=ASSEMBLY_LAYER1-1__PICKEDSET4
  *Elset, elset=ASSEMBLY_LAYER1-1__PICKEDSET4
  *Node
  *Element, type=S3

 ***NOTE: ELEMENT TYPES S3 AND S3R ARE IDENTICAL. ELEMENT TYPE S3 WILL BE 
          REFERRED TO AS S3R FROM HERE ON
  *Element, type=S4R
  *Nset, nset=ASSEMBLY_LAYER2-1__PICKEDSET4
  *Elset, elset=ASSEMBLY_LAYER2-1__PICKEDSET4
  *Node
  *Element, type=S3

 ***NOTE: ELEMENT TYPES S3 AND S3R ARE IDENTICAL. ELEMENT TYPE S3 WILL BE 
          REFERRED TO AS S3R FROM HERE ON
  *Element, type=S4R
  *Nset, nset=ASSEMBLY_LAYER3-1__PICKEDSET4
  *Elset, elset=ASSEMBLY_LAYER3-1__PICKEDSET4
  *Node
  *Element, type=S3

 ***NOTE: ELEMENT TYPES S3 AND S3R ARE IDENTICAL. ELEMENT TYPE S3 WILL BE 
          REFERRED TO AS S3R FROM HERE ON
  *Element, type=S4R
  *Nset, nset=ASSEMBLY_LAYER4-1__PICKEDSET4
  *Elset, elset=ASSEMBLY_LAYER4-1__PICKEDSET4
  *Nset, nset=ASSEMBLY__PICKEDSET19
  *Nset, nset=ASSEMBLY__PICKEDSET20
  *Nset, nset=ASSEMBLY__PICKEDSET21
  *Nset, nset=ASSEMBLY__PICKEDSET22
  *Nset, nset=ASSEMBLY__PICKEDSET23
  *Nset, nset=ASSEMBLY__PICKEDSET24
  *Nset, nset=ASSEMBLY__PICKEDSET25
  *Nset, nset=ASSEMBLY__PICKEDSET26
  *Nset, nset=ASSEMBLY__PICKEDSET27
  *Nset, nset=ASSEMBLY__PICKEDSET28
  *Nset, nset=ASSEMBLY__PICKEDSET29
  *Nset, nset=ASSEMBLY__PICKEDSET30
  *Nset, nset=ASSEMBLY__PICKEDSET31
  *Elset, elset=ASSEMBLY__PICKEDSET19
  *Elset, elset=ASSEMBLY__PICKEDSET20
  *Elset, elset=ASSEMBLY__PICKEDSET21
  *Elset, elset=ASSEMBLY__PICKEDSET22
  *Elset, elset=ASSEMBLY__PICKEDSET23
  *Elset, elset=ASSEMBLY__PICKEDSET24
  *Elset, elset=ASSEMBLY__PICKEDSET25
  *Elset, elset=ASSEMBLY__PICKEDSET26
  *Elset, elset=ASSEMBLY__PICKEDSET28
  *Elset, elset=ASSEMBLY__PICKEDSET29
  *Elset, elset=ASSEMBLY__PICKEDSET30
  *Elset, elset=ASSEMBLY__PICKEDSET31
  *Elset, elset=ASSEMBLY___PICKEDSURF13_SPOS
  *Elset, elset=ASSEMBLY___PICKEDSURF14_SNEG
  *Elset, elset=ASSEMBLY___PICKEDSURF15_SPOS
  *Elset, elset=ASSEMBLY___PICKEDSURF16_SNEG
  *Elset, elset=ASSEMBLY___PICKEDSURF17_SPOS
  *Elset, elset=ASSEMBLY___PICKEDSURF18_SNEG
  *physicalconstants, absolutezero=-272.15
  *temperature
  *temperature
  *temperature
  *temperature
  *material, name=SI-SAME
  *density
  *elastic
  *expansion
  *material, name=UBUMP-BOTTOM_MIX
  *elastic, type=ENGINEERINGCONSTANTS
  *expansion, type=ORTHOTROPIC
  *material, name=UBUMP-TOP_MIX
  *elastic, type=ENGINEERINGCONSTANTS
  *expansion, type=ORTHOTROPIC
  *initialconditions, type=TEMPERATURE
  *initialconditions, type=TEMPERATURE
  *initialconditions, type=TEMPERATURE
  *initialconditions, type=TEMPERATURE
  *shellsection, elset=ASSEMBLY_LAYER1-1__PICKEDSET4, material=SI-SAME
  *shellsection, elset=ASSEMBLY_LAYER2-1__PICKEDSET4, material=UBUMP-TOP_MIX
  *shellsection, elset=ASSEMBLY_LAYER3-1__PICKEDSET4, material=SI-SAME
  *shellsection, elset=ASSEMBLY_LAYER4-1__PICKEDSET4, material=UBUMP-BOTTOM_MIX
  *shellsection, elset=ASSEMBLY_LAYER1-1__PICKEDSET4, material=SI-SAME
  *shellsection, elset=ASSEMBLY_LAYER2-1__PICKEDSET4, material=UBUMP-TOP_MIX
  *shellsection, elset=ASSEMBLY_LAYER3-1__PICKEDSET4, material=SI-SAME
  *shellsection, elset=ASSEMBLY_LAYER4-1__PICKEDSET4, material=UBUMP-BOTTOM_MIX
  *tie, name=ASSEMBLY_CONSTRAINT-1, adjust=YES
  *tie, name=ASSEMBLY_CONSTRAINT-2, adjust=YES
  *tie, name=ASSEMBLY_CONSTRAINT-3, adjust=YES
  *surface, type=ELEMENT, name=ASSEMBLY__PICKEDSURF13
  *surface, type=ELEMENT, name=ASSEMBLY__PICKEDSURF14
  *surface, type=ELEMENT, name=ASSEMBLY__PICKEDSURF15
  *surface, type=ELEMENT, name=ASSEMBLY__PICKEDSURF16
  *surface, type=ELEMENT, name=ASSEMBLY__PICKEDSURF17
  *surface, type=ELEMENT, name=ASSEMBLY__PICKEDSURF18
  *tie, name=ASSEMBLY_CONSTRAINT-1, adjust=YES
  *tie, name=ASSEMBLY_CONSTRAINT-2, adjust=YES
  *tie, name=ASSEMBLY_CONSTRAINT-3, adjust=YES
  *surface, type=ELEMENT, name=ASSEMBLY__PICKEDSURF13
  *surface, type=ELEMENT, name=ASSEMBLY__PICKEDSURF14
  *surface, type=ELEMENT, name=ASSEMBLY__PICKEDSURF15
  *surface, type=ELEMENT, name=ASSEMBLY__PICKEDSURF16
  *surface, type=ELEMENT, name=ASSEMBLY__PICKEDSURF17
  *surface, type=ELEMENT, name=ASSEMBLY__PICKEDSURF18
  *surface, type=ELEMENT, name=ASSEMBLY__PICKEDSURF13
  *surface, type=ELEMENT, name=ASSEMBLY__PICKEDSURF14
  *surface, type=ELEMENT, name=ASSEMBLY__PICKEDSURF15
  *surface, type=ELEMENT, name=ASSEMBLY__PICKEDSURF16
  *surface, type=ELEMENT, name=ASSEMBLY__PICKEDSURF17
  *surface, type=ELEMENT, name=ASSEMBLY__PICKEDSURF18
  *tie, name=ASSEMBLY_CONSTRAINT-1, adjust=YES
  *tie, name=ASSEMBLY_CONSTRAINT-2, adjust=YES
  *tie, name=ASSEMBLY_CONSTRAINT-3, adjust=YES
  *tie, name=ASSEMBLY_CONSTRAINT-1, adjust=YES
  *tie, name=ASSEMBLY_CONSTRAINT-2, adjust=YES
  *tie, name=ASSEMBLY_CONSTRAINT-3, adjust=YES
  *initialconditions, type=TEMPERATURE
  *initialconditions, type=TEMPERATURE
  *initialconditions, type=TEMPERATURE
  *initialconditions, type=TEMPERATURE
  *boundary
  *boundary
  *boundary
  *boundary
  *boundary
  *boundary
  *boundary
  *boundary
  *boundary
  *boundary
  *boundary
  *boundary
  *boundary
  *boundary
  *boundary
  *boundary
  *boundary
  *boundary
  *tie, name=ASSEMBLY_CONSTRAINT-1, adjust=YES

 ***WARNING: FOR *TIE PAIR (ASSEMBLY__PICKEDSURF14-ASSEMBLY__PICKEDSURF13), 
             ADJUSTMENT WAS SPECIFIED BUT NO NODE WAS ADJUSTED MORE THAN THE 
             ADJUSTMENT DISTANCE = 2.22000E-16.
  *tie, name=ASSEMBLY_CONSTRAINT-2, adjust=YES

 ***WARNING: FOR *TIE PAIR (ASSEMBLY__PICKEDSURF16-ASSEMBLY__PICKEDSURF15), 
             ADJUSTED NODES WITH VERY SMALL ADJUSTMENTS WERE NOT PRINTED. 
             SPECIFY *PREPRINT,MODEL=YES FOR COMPLETE PRINTOUT.
  *tie, name=ASSEMBLY_CONSTRAINT-3, adjust=YES

 ***WARNING: FOR *TIE PAIR (ASSEMBLY__PICKEDSURF18-ASSEMBLY__PICKEDSURF17), 
             ADJUSTED NODES WITH VERY SMALL ADJUSTMENTS WERE NOT PRINTED. 
             SPECIFY *PREPRINT,MODEL=YES FOR COMPLETE PRINTOUT.
  *tie, name=ASSEMBLY_CONSTRAINT-1, adjust=YES
  *tie, name=ASSEMBLY_CONSTRAINT-2, adjust=YES
  *tie, name=ASSEMBLY_CONSTRAINT-3, adjust=YES
  *tie, name=ASSEMBLY_CONSTRAINT-1, adjust=YES
  *tie, name=ASSEMBLY_CONSTRAINT-2, adjust=YES
  *tie, name=ASSEMBLY_CONSTRAINT-3, adjust=YES
  *surface, type=ELEMENT, name=ASSEMBLY__PICKEDSURF13
  *surface, type=ELEMENT, name=ASSEMBLY__PICKEDSURF14
  *surface, type=ELEMENT, name=ASSEMBLY__PICKEDSURF15
  *surface, type=ELEMENT, name=ASSEMBLY__PICKEDSURF16
  *surface, type=ELEMENT, name=ASSEMBLY__PICKEDSURF17
  *surface, type=ELEMENT, name=ASSEMBLY__PICKEDSURF18
  *tie, name=ASSEMBLY_CONSTRAINT-1, adjust=YES
  *tie, name=ASSEMBLY_CONSTRAINT-2, adjust=YES
  *tie, name=ASSEMBLY_CONSTRAINT-3, adjust=YES
  *output, field, variable=PRESELECT
  *output, history, variable=PRESELECT
  *output, field, variable=PRESELECT
  *output, history, variable=PRESELECT
  *initialconditions, type=TEMPERATURE
  *initialconditions, type=TEMPERATURE
  *initialconditions, type=TEMPERATURE
  *initialconditions, type=TEMPERATURE
  *temperature
  *temperature
  *temperature
  *temperature
  *output, field, variable=PRESELECT
  *output, history, variable=PRESELECT
  *output, field, variable=PRESELECT
  *output, history, variable=PRESELECT
  *initialconditions, type=TEMPERATURE
  *initialconditions, type=TEMPERATURE
  *initialconditions, type=TEMPERATURE
  *initialconditions, type=TEMPERATURE
  *output, field, variable=PRESELECT
  *output, history, variable=PRESELECT
  *output, field, variable=PRESELECT
  *output, history, variable=PRESELECT
  *Step, name=Contact, nlgeom=YES, inc=1000
  *output, field, variable=PRESELECT
  *output, history, variable=PRESELECT
  *Step, name=T_down, nlgeom=YES, inc=1000
  *output, field, variable=PRESELECT
  *output, history, variable=PRESELECT
  *Step, name=Contact, nlgeom=YES, inc=1000
  *Step, name=T_down, nlgeom=YES, inc=1000
  *Step, name=Contact, nlgeom=YES, inc=1000
  *static
  *output, field, variable=PRESELECT
  *output, history, variable=PRESELECT
  *endstep
  *Step, name=T_down, nlgeom=YES, inc=1000
  *static
  *temperature
  *temperature
  *temperature
  *temperature
  *output, field, variable=PRESELECT
  *output, history, variable=PRESELECT
  *endstep
  *boundary
  *boundary
  *boundary
  *boundary
  *boundary
  *boundary
  *boundary
  *boundary
  *boundary
  *Step, name=Contact, nlgeom=YES, inc=1000
  *static
  *endstep
  *Step, name=T_down, nlgeom=YES, inc=1000
  *static
  *temperature
  *temperature
  *temperature
  *temperature
  *endstep

 ***WARNING: DEGREE OF FREEDOM 2 HAS BEEN ELIMINATED AT NODE 1 INSTANCE 
             LAYER2-1 BOUNDARY CONDITION TYPE YSYMM MAY NOT BE APPLIED AT THIS 
             NODE

 ***WARNING: DEGREE OF FREEDOM 4 HAS BEEN ELIMINATED AT NODE 1 INSTANCE 
             LAYER2-1 BOUNDARY CONDITION TYPE YSYMM MAY NOT BE APPLIED AT THIS 
             NODE

 ***WARNING: DEGREE OF FREEDOM 6 HAS BEEN ELIMINATED AT NODE 1 INSTANCE 
             LAYER2-1 BOUNDARY CONDITION TYPE YSYMM MAY NOT BE APPLIED AT THIS 
             NODE

 ***WARNING: DEGREE OF FREEDOM 1 HAS BEEN ELIMINATED AT NODE 2 INSTANCE 
             LAYER2-1 BOUNDARY CONDITION TYPE XSYMM MAY NOT BE APPLIED AT THIS 
             NODE

 ***WARNING: DEGREE OF FREEDOM 5 HAS BEEN ELIMINATED AT NODE 2 INSTANCE 
             LAYER2-1 BOUNDARY CONDITION TYPE XSYMM MAY NOT BE APPLIED AT THIS 
             NODE

 ***WARNING: DEGREE OF FREEDOM 6 HAS BEEN ELIMINATED AT NODE 2 INSTANCE 
             LAYER2-1 BOUNDARY CONDITION TYPE XSYMM MAY NOT BE APPLIED AT THIS 
             NODE

 ***WARNING: DEGREE OF FREEDOM 2 HAS BEEN ELIMINATED AT NODE 2 INSTANCE 
             LAYER2-1 BOUNDARY CONDITION TYPE YSYMM MAY NOT BE APPLIED AT THIS 
             NODE

 ***WARNING: DEGREE OF FREEDOM 4 HAS BEEN ELIMINATED AT NODE 2 INSTANCE 
             LAYER2-1 BOUNDARY CONDITION TYPE YSYMM MAY NOT BE APPLIED AT THIS 
             NODE

 ***WARNING: DEGREE OF FREEDOM 6 HAS BEEN ELIMINATED AT NODE 2 INSTANCE 
             LAYER2-1 BOUNDARY CONDITION TYPE YSYMM MAY NOT BE APPLIED AT THIS 
             NODE

 ***WARNING: DEGREE OF FREEDOM 1 HAS BEEN ELIMINATED AT NODE 13 INSTANCE 
             LAYER2-1 BOUNDARY CONDITION TYPE XSYMM MAY NOT BE APPLIED AT THIS 
             NODE

 ***WARNING: DEGREE OF FREEDOM 5 HAS BEEN ELIMINATED AT NODE 13 INSTANCE 
             LAYER2-1 BOUNDARY CONDITION TYPE XSYMM MAY NOT BE APPLIED AT THIS 
             NODE

 ***WARNING: DEGREE OF FREEDOM 6 HAS BEEN ELIMINATED AT NODE 13 INSTANCE 
             LAYER2-1 BOUNDARY CONDITION TYPE XSYMM MAY NOT BE APPLIED AT THIS 
             NODE

 ***WARNING: DEGREE OF FREEDOM 2 HAS BEEN ELIMINATED AT NODE 14 INSTANCE 
             LAYER2-1 BOUNDARY CONDITION TYPE YSYMM MAY NOT BE APPLIED AT THIS 
             NODE

 ***WARNING: DEGREE OF FREEDOM 4 HAS BEEN ELIMINATED AT NODE 14 INSTANCE 
             LAYER2-1 BOUNDARY CONDITION TYPE YSYMM MAY NOT BE APPLIED AT THIS 
             NODE

 ***WARNING: DEGREE OF FREEDOM 6 HAS BEEN ELIMINATED AT NODE 14 INSTANCE 
             LAYER2-1 BOUNDARY CONDITION TYPE YSYMM MAY NOT BE APPLIED AT THIS 
             NODE

 ***WARNING: DEGREE OF FREEDOM 2 HAS BEEN ELIMINATED AT NODE 15 INSTANCE 
             LAYER2-1 BOUNDARY CONDITION TYPE YSYMM MAY NOT BE APPLIED AT THIS 
             NODE

 ***WARNING: DEGREE OF FREEDOM 4 HAS BEEN ELIMINATED AT NODE 15 INSTANCE 
             LAYER2-1 BOUNDARY CONDITION TYPE YSYMM MAY NOT BE APPLIED AT THIS 
             NODE

 ***WARNING: DEGREE OF FREEDOM 6 HAS BEEN ELIMINATED AT NODE 15 INSTANCE 
             LAYER2-1 BOUNDARY CONDITION TYPE YSYMM MAY NOT BE APPLIED AT THIS 
             NODE

 ***WARNING: DEGREE OF FREEDOM 2 HAS BEEN ELIMINATED AT NODE 16 INSTANCE 
             LAYER2-1 BOUNDARY CONDITION TYPE YSYMM MAY NOT BE APPLIED AT THIS 
             NODE

 ***WARNING: DEGREE OF FREEDOM 4 HAS BEEN ELIMINATED AT NODE 16 INSTANCE 
             LAYER2-1 BOUNDARY CONDITION TYPE YSYMM MAY NOT BE APPLIED AT THIS 
             NODE

 ***WARNING: DEGREE OF FREEDOM 6 HAS BEEN ELIMINATED AT NODE 16 INSTANCE 
             LAYER2-1 BOUNDARY CONDITION TYPE YSYMM MAY NOT BE APPLIED AT THIS 
             NODE

 ***WARNING: DEGREE OF FREEDOM 2 HAS BEEN ELIMINATED AT NODE 17 INSTANCE 
             LAYER2-1 BOUNDARY CONDITION TYPE YSYMM MAY NOT BE APPLIED AT THIS 
             NODE

 ***WARNING: DEGREE OF FREEDOM 4 HAS BEEN ELIMINATED AT NODE 17 INSTANCE 
             LAYER2-1 BOUNDARY CONDITION TYPE YSYMM MAY NOT BE APPLIED AT THIS 
             NODE

 ***WARNING: DEGREE OF FREEDOM 6 HAS BEEN ELIMINATED AT NODE 17 INSTANCE 
             LAYER2-1 BOUNDARY CONDITION TYPE YSYMM MAY NOT BE APPLIED AT THIS 
             NODE

 ***WARNING: DEGREE OF FREEDOM 2 HAS BEEN ELIMINATED AT NODE 18 INSTANCE 
             LAYER2-1 BOUNDARY CONDITION TYPE YSYMM MAY NOT BE APPLIED AT THIS 
             NODE

 ***WARNING: DEGREE OF FREEDOM 4 HAS BEEN ELIMINATED AT NODE 18 INSTANCE 
             LAYER2-1 BOUNDARY CONDITION TYPE YSYMM MAY NOT BE APPLIED AT THIS 
             NODE

 ***WARNING: DEGREE OF FREEDOM 6 HAS BEEN ELIMINATED AT NODE 18 INSTANCE 
             LAYER2-1 BOUNDARY CONDITION TYPE YSYMM MAY NOT BE APPLIED AT THIS 
             NODE

 ***WARNING: DEGREE OF FREEDOM 2 HAS BEEN ELIMINATED AT NODE 19 INSTANCE 
             LAYER2-1 BOUNDARY CONDITION TYPE YSYMM MAY NOT BE APPLIED AT THIS 
             NODE

 ***WARNING: DEGREE OF FREEDOM 4 HAS BEEN ELIMINATED AT NODE 19 INSTANCE 
             LAYER2-1 BOUNDARY CONDITION TYPE YSYMM MAY NOT BE APPLIED AT THIS 
             NODE

 ***WARNING: DEGREE OF FREEDOM 6 HAS BEEN ELIMINATED AT NODE 19 INSTANCE 
             LAYER2-1 BOUNDARY CONDITION TYPE YSYMM MAY NOT BE APPLIED AT THIS 
             NODE

 ***WARNING: DEGREE OF FREEDOM 2 HAS BEEN ELIMINATED AT NODE 20 INSTANCE 
             LAYER2-1 BOUNDARY CONDITION TYPE YSYMM MAY NOT BE APPLIED AT THIS 
             NODE

 ***WARNING: DEGREE OF FREEDOM 4 HAS BEEN ELIMINATED AT NODE 20 INSTANCE 
             LAYER2-1 BOUNDARY CONDITION TYPE YSYMM MAY NOT BE APPLIED AT THIS 
             NODE

 ***WARNING: DEGREE OF FREEDOM 6 HAS BEEN ELIMINATED AT NODE 20 INSTANCE 
             LAYER2-1 BOUNDARY CONDITION TYPE YSYMM MAY NOT BE APPLIED AT THIS 
             NODE

 ***WARNING: DEGREE OF FREEDOM 2 HAS BEEN ELIMINATED AT NODE 21 INSTANCE 
             LAYER2-1 BOUNDARY CONDITION TYPE YSYMM MAY NOT BE APPLIED AT THIS 
             NODE

 ***WARNING: DEGREE OF FREEDOM 4 HAS BEEN ELIMINATED AT NODE 21 INSTANCE 
             LAYER2-1 BOUNDARY CONDITION TYPE YSYMM MAY NOT BE APPLIED AT THIS 
             NODE

 ***WARNING: DEGREE OF FREEDOM 6 HAS BEEN ELIMINATED AT NODE 21 INSTANCE 
             LAYER2-1 BOUNDARY CONDITION TYPE YSYMM MAY NOT BE APPLIED AT THIS 
             NODE

 ***WARNING: DEGREE OF FREEDOM 2 HAS BEEN ELIMINATED AT NODE 22 INSTANCE 
             LAYER2-1 BOUNDARY CONDITION TYPE YSYMM MAY NOT BE APPLIED AT THIS 
             NODE

 ***WARNING: DEGREE OF FREEDOM 4 HAS BEEN ELIMINATED AT NODE 22 INSTANCE 
             LAYER2-1 BOUNDARY CONDITION TYPE YSYMM MAY NOT BE APPLIED AT THIS 
             NODE

 ***WARNING: DEGREE OF FREEDOM 6 HAS BEEN ELIMINATED AT NODE 22 INSTANCE 
             LAYER2-1 BOUNDARY CONDITION TYPE YSYMM MAY NOT BE APPLIED AT THIS 
             NODE

 ***WARNING: DEGREE OF FREEDOM 2 HAS BEEN ELIMINATED AT NODE 23 INSTANCE 
             LAYER2-1 BOUNDARY CONDITION TYPE YSYMM MAY NOT BE APPLIED AT THIS 
             NODE

 ***WARNING: DEGREE OF FREEDOM 4 HAS BEEN ELIMINATED AT NODE 23 INSTANCE 
             LAYER2-1 BOUNDARY CONDITION TYPE YSYMM MAY NOT BE APPLIED AT THIS 
             NODE

 ***WARNING: DEGREE OF FREEDOM 6 HAS BEEN ELIMINATED AT NODE 23 INSTANCE 
             LAYER2-1 BOUNDARY CONDITION TYPE YSYMM MAY NOT BE APPLIED AT THIS 
             NODE

 ***WARNING: DEGREE OF FREEDOM 2 HAS BEEN ELIMINATED AT NODE 24 INSTANCE 
             LAYER2-1 BOUNDARY CONDITION TYPE YSYMM MAY NOT BE APPLIED AT THIS 
             NODE

 ***WARNING: DEGREE OF FREEDOM 4 HAS BEEN ELIMINATED AT NODE 24 INSTANCE 
             LAYER2-1 BOUNDARY CONDITION TYPE YSYMM MAY NOT BE APPLIED AT THIS 
             NODE

 ***WARNING: DEGREE OF FREEDOM 6 HAS BEEN ELIMINATED AT NODE 24 INSTANCE 
             LAYER2-1 BOUNDARY CONDITION TYPE YSYMM MAY NOT BE APPLIED AT THIS 
             NODE

 ***WARNING: DEGREE OF FREEDOM 2 HAS BEEN ELIMINATED AT NODE 25 INSTANCE 
             LAYER2-1 BOUNDARY CONDITION TYPE YSYMM MAY NOT BE APPLIED AT THIS 
             NODE

 ***WARNING: DEGREE OF FREEDOM 4 HAS BEEN ELIMINATED AT NODE 25 INSTANCE 
             LAYER2-1 BOUNDARY CONDITION TYPE YSYMM MAY NOT BE APPLIED AT THIS 
             NODE

 ***WARNING: DEGREE OF FREEDOM 6 HAS BEEN ELIMINATED AT NODE 25 INSTANCE 
             LAYER2-1 BOUNDARY CONDITION TYPE YSYMM MAY NOT BE APPLIED AT THIS 
             NODE

 ***WARNING: DEGREE OF FREEDOM 2 HAS BEEN ELIMINATED AT NODE 26 INSTANCE 
             LAYER2-1 BOUNDARY CONDITION TYPE YSYMM MAY NOT BE APPLIED AT THIS 
             NODE

 ***WARNING: DEGREE OF FREEDOM 4 HAS BEEN ELIMINATED AT NODE 26 INSTANCE 
             LAYER2-1 BOUNDARY CONDITION TYPE YSYMM MAY NOT BE APPLIED AT THIS 
             NODE

 ***WARNING: DEGREE OF FREEDOM 6 HAS BEEN ELIMINATED AT NODE 26 INSTANCE 
             LAYER2-1 BOUNDARY CONDITION TYPE YSYMM MAY NOT BE APPLIED AT THIS 
             NODE

 ***WARNING: DEGREE OF FREEDOM 2 HAS BEEN ELIMINATED AT NODE 27 INSTANCE 
             LAYER2-1 BOUNDARY CONDITION TYPE YSYMM MAY NOT BE APPLIED AT THIS 
             NODE

 ***WARNING: DEGREE OF FREEDOM 4 HAS BEEN ELIMINATED AT NODE 27 INSTANCE 
             LAYER2-1 BOUNDARY CONDITION TYPE YSYMM MAY NOT BE APPLIED AT THIS 
             NODE

 ***WARNING: DEGREE OF FREEDOM 6 HAS BEEN ELIMINATED AT NODE 27 INSTANCE 
             LAYER2-1 BOUNDARY CONDITION TYPE YSYMM MAY NOT BE APPLIED AT THIS 
             NODE

 ***WARNING: DEGREE OF FREEDOM 2 HAS BEEN ELIMINATED AT NODE 28 INSTANCE 
             LAYER2-1 BOUNDARY CONDITION TYPE YSYMM MAY NOT BE APPLIED AT THIS 
             NODE

 ***WARNING: DEGREE OF FREEDOM 4 HAS BEEN ELIMINATED AT NODE 28 INSTANCE 
             LAYER2-1 BOUNDARY CONDITION TYPE YSYMM MAY NOT BE APPLIED AT THIS 
             NODE

 ***WARNING: DEGREE OF FREEDOM 6 HAS BEEN ELIMINATED AT NODE 28 INSTANCE 
             LAYER2-1 BOUNDARY CONDITION TYPE YSYMM MAY NOT BE APPLIED AT THIS 
             NODE

 ***WARNING: DEGREE OF FREEDOM 2 HAS BEEN ELIMINATED AT NODE 29 INSTANCE 
             LAYER2-1 BOUNDARY CONDITION TYPE YSYMM MAY NOT BE APPLIED AT THIS 
             NODE

 ***WARNING: DEGREE OF FREEDOM 4 HAS BEEN ELIMINATED AT NODE 29 INSTANCE 
             LAYER2-1 BOUNDARY CONDITION TYPE YSYMM MAY NOT BE APPLIED AT THIS 
             NODE

 ***WARNING: DEGREE OF FREEDOM 6 HAS BEEN ELIMINATED AT NODE 29 INSTANCE 
             LAYER2-1 BOUNDARY CONDITION TYPE YSYMM MAY NOT BE APPLIED AT THIS 
             NODE

 ***WARNING: DEGREE OF FREEDOM 2 HAS BEEN ELIMINATED AT NODE 30 INSTANCE 
             LAYER2-1 BOUNDARY CONDITION TYPE YSYMM MAY NOT BE APPLIED AT THIS 
             NODE

 ***WARNING: DEGREE OF FREEDOM 4 HAS BEEN ELIMINATED AT NODE 30 INSTANCE 
             LAYER2-1 BOUNDARY CONDITION TYPE YSYMM MAY NOT BE APPLIED AT THIS 
             NODE

 ***WARNING: DEGREE OF FREEDOM 6 HAS BEEN ELIMINATED AT NODE 30 INSTANCE 
             LAYER2-1 BOUNDARY CONDITION TYPE YSYMM MAY NOT BE APPLIED AT THIS 
             NODE

 ***WARNING: DEGREE OF FREEDOM 2 HAS BEEN ELIMINATED AT NODE 31 INSTANCE 
             LAYER2-1 BOUNDARY CONDITION TYPE YSYMM MAY NOT BE APPLIED AT THIS 
             NODE

 ***WARNING: DEGREE OF FREEDOM 4 HAS BEEN ELIMINATED AT NODE 31 INSTANCE 
             LAYER2-1 BOUNDARY CONDITION TYPE YSYMM MAY NOT BE APPLIED AT THIS 
             NODE

 ***WARNING: DEGREE OF FREEDOM 6 HAS BEEN ELIMINATED AT NODE 31 INSTANCE 
             LAYER2-1 BOUNDARY CONDITION TYPE YSYMM MAY NOT BE APPLIED AT THIS 
             NODE

 ***WARNING: DEGREE OF FREEDOM 2 HAS BEEN ELIMINATED AT NODE 32 INSTANCE 
             LAYER2-1 BOUNDARY CONDITION TYPE YSYMM MAY NOT BE APPLIED AT THIS 
             NODE

 ***WARNING: DEGREE OF FREEDOM 4 HAS BEEN ELIMINATED AT NODE 32 INSTANCE 
             LAYER2-1 BOUNDARY CONDITION TYPE YSYMM MAY NOT BE APPLIED AT THIS 
             NODE

 ***WARNING: DEGREE OF FREEDOM 6 HAS BEEN ELIMINATED AT NODE 32 INSTANCE 
             LAYER2-1 BOUNDARY CONDITION TYPE YSYMM MAY NOT BE APPLIED AT THIS 
             NODE

 ***WARNING: DEGREE OF FREEDOM 2 HAS BEEN ELIMINATED AT NODE 33 INSTANCE 
             LAYER2-1 BOUNDARY CONDITION TYPE YSYMM MAY NOT BE APPLIED AT THIS 
             NODE

 ***WARNING: DEGREE OF FREEDOM 4 HAS BEEN ELIMINATED AT NODE 33 INSTANCE 
             LAYER2-1 BOUNDARY CONDITION TYPE YSYMM MAY NOT BE APPLIED AT THIS 
             NODE

 ***WARNING: DEGREE OF FREEDOM 6 HAS BEEN ELIMINATED AT NODE 33 INSTANCE 
             LAYER2-1 BOUNDARY CONDITION TYPE YSYMM MAY NOT BE APPLIED AT THIS 
             NODE

 ***WARNING: DEGREE OF FREEDOM 2 HAS BEEN ELIMINATED AT NODE 34 INSTANCE 
             LAYER2-1 BOUNDARY CONDITION TYPE YSYMM MAY NOT BE APPLIED AT THIS 
             NODE

 ***WARNING: DEGREE OF FREEDOM 4 HAS BEEN ELIMINATED AT NODE 34 INSTANCE 
             LAYER2-1 BOUNDARY CONDITION TYPE YSYMM MAY NOT BE APPLIED AT THIS 
             NODE

 ***WARNING: DEGREE OF FREEDOM 6 HAS BEEN ELIMINATED AT NODE 34 INSTANCE 
             LAYER2-1 BOUNDARY CONDITION TYPE YSYMM MAY NOT BE APPLIED AT THIS 
             NODE

 ***WARNING: DEGREE OF FREEDOM 2 HAS BEEN ELIMINATED AT NODE 35 INSTANCE 
             LAYER2-1 BOUNDARY CONDITION TYPE YSYMM MAY NOT BE APPLIED AT THIS 
             NODE

 ***WARNING: DEGREE OF FREEDOM 4 HAS BEEN ELIMINATED AT NODE 35 INSTANCE 
             LAYER2-1 BOUNDARY CONDITION TYPE YSYMM MAY NOT BE APPLIED AT THIS 
             NODE

 ***WARNING: DEGREE OF FREEDOM 6 HAS BEEN ELIMINATED AT NODE 35 INSTANCE 
             LAYER2-1 BOUNDARY CONDITION TYPE YSYMM MAY NOT BE APPLIED AT THIS 
             NODE

 ***WARNING: DEGREE OF FREEDOM 2 HAS BEEN ELIMINATED AT NODE 36 INSTANCE 
             LAYER2-1 BOUNDARY CONDITION TYPE YSYMM MAY NOT BE APPLIED AT THIS 
             NODE

 ***WARNING: DEGREE OF FREEDOM 4 HAS BEEN ELIMINATED AT NODE 36 INSTANCE 
             LAYER2-1 BOUNDARY CONDITION TYPE YSYMM MAY NOT BE APPLIED AT THIS 
             NODE

 ***WARNING: DEGREE OF FREEDOM 6 HAS BEEN ELIMINATED AT NODE 36 INSTANCE 
             LAYER2-1 BOUNDARY CONDITION TYPE YSYMM MAY NOT BE APPLIED AT THIS 
             NODE

 ***WARNING: DEGREE OF FREEDOM 2 HAS BEEN ELIMINATED AT NODE 37 INSTANCE 
             LAYER2-1 BOUNDARY CONDITION TYPE YSYMM MAY NOT BE APPLIED AT THIS 
             NODE

 ***WARNING: DEGREE OF FREEDOM 4 HAS BEEN ELIMINATED AT NODE 37 INSTANCE 
             LAYER2-1 BOUNDARY CONDITION TYPE YSYMM MAY NOT BE APPLIED AT THIS 
             NODE

 ***WARNING: DEGREE OF FREEDOM 6 HAS BEEN ELIMINATED AT NODE 37 INSTANCE 
             LAYER2-1 BOUNDARY CONDITION TYPE YSYMM MAY NOT BE APPLIED AT THIS 
             NODE

 ***WARNING: DEGREE OF FREEDOM 2 HAS BEEN ELIMINATED AT NODE 38 INSTANCE 
             LAYER2-1 BOUNDARY CONDITION TYPE YSYMM MAY NOT BE APPLIED AT THIS 
             NODE

 ***WARNING: DEGREE OF FREEDOM 4 HAS BEEN ELIMINATED AT NODE 38 INSTANCE 
             LAYER2-1 BOUNDARY CONDITION TYPE YSYMM MAY NOT BE APPLIED AT THIS 
             NODE

 ***WARNING: DEGREE OF FREEDOM 6 HAS BEEN ELIMINATED AT NODE 38 INSTANCE 
             LAYER2-1 BOUNDARY CONDITION TYPE YSYMM MAY NOT BE APPLIED AT THIS 
             NODE

 ***WARNING: DEGREE OF FREEDOM 2 HAS BEEN ELIMINATED AT NODE 39 INSTANCE 
             LAYER2-1 BOUNDARY CONDITION TYPE YSYMM MAY NOT BE APPLIED AT THIS 
             NODE

 ***WARNING: DEGREE OF FREEDOM 4 HAS BEEN ELIMINATED AT NODE 39 INSTANCE 
             LAYER2-1 BOUNDARY CONDITION TYPE YSYMM MAY NOT BE APPLIED AT THIS 
             NODE

 ***WARNING: DEGREE OF FREEDOM 6 HAS BEEN ELIMINATED AT NODE 39 INSTANCE 
             LAYER2-1 BOUNDARY CONDITION TYPE YSYMM MAY NOT BE APPLIED AT THIS 
             NODE

 ***WARNING: DEGREE OF FREEDOM 2 HAS BEEN ELIMINATED AT NODE 40 INSTANCE 
             LAYER2-1 BOUNDARY CONDITION TYPE YSYMM MAY NOT BE APPLIED AT THIS 
             NODE

 ***WARNING: DEGREE OF FREEDOM 4 HAS BEEN ELIMINATED AT NODE 40 INSTANCE 
             LAYER2-1 BOUNDARY CONDITION TYPE YSYMM MAY NOT BE APPLIED AT THIS 
             NODE

 ***WARNING: DEGREE OF FREEDOM 6 HAS BEEN ELIMINATED AT NODE 40 INSTANCE 
             LAYER2-1 BOUNDARY CONDITION TYPE YSYMM MAY NOT BE APPLIED AT THIS 
             NODE

 ***WARNING: DEGREE OF FREEDOM 2 HAS BEEN ELIMINATED AT NODE 41 INSTANCE 
             LAYER2-1 BOUNDARY CONDITION TYPE YSYMM MAY NOT BE APPLIED AT THIS 
             NODE

 ***WARNING: DEGREE OF FREEDOM 4 HAS BEEN ELIMINATED AT NODE 41 INSTANCE 
             LAYER2-1 BOUNDARY CONDITION TYPE YSYMM MAY NOT BE APPLIED AT THIS 
             NODE

 ***WARNING: DEGREE OF FREEDOM 6 HAS BEEN ELIMINATED AT NODE 41 INSTANCE 
             LAYER2-1 BOUNDARY CONDITION TYPE YSYMM MAY NOT BE APPLIED AT THIS 
             NODE

 ***WARNING: DEGREE OF FREEDOM 2 HAS BEEN ELIMINATED AT NODE 42 INSTANCE 
             LAYER2-1 BOUNDARY CONDITION TYPE YSYMM MAY NOT BE APPLIED AT THIS 
             NODE

 ***WARNING: DEGREE OF FREEDOM 4 HAS BEEN ELIMINATED AT NODE 42 INSTANCE 
             LAYER2-1 BOUNDARY CONDITION TYPE YSYMM MAY NOT BE APPLIED AT THIS 
             NODE

 ***WARNING: DEGREE OF FREEDOM 6 HAS BEEN ELIMINATED AT NODE 42 INSTANCE 
             LAYER2-1 BOUNDARY CONDITION TYPE YSYMM MAY NOT BE APPLIED AT THIS 
             NODE

 ***WARNING: DEGREE OF FREEDOM 1 HAS BEEN ELIMINATED AT NODE 79 INSTANCE 
             LAYER2-1 BOUNDARY CONDITION TYPE XSYMM MAY NOT BE APPLIED AT THIS 
             NODE

 ***WARNING: DEGREE OF FREEDOM 5 HAS BEEN ELIMINATED AT NODE 79 INSTANCE 
             LAYER2-1 BOUNDARY CONDITION TYPE XSYMM MAY NOT BE APPLIED AT THIS 
             NODE

 ***WARNING: DEGREE OF FREEDOM 6 HAS BEEN ELIMINATED AT NODE 79 INSTANCE 
             LAYER2-1 BOUNDARY CONDITION TYPE XSYMM MAY NOT BE APPLIED AT THIS 
             NODE

 ***WARNING: DEGREE OF FREEDOM 1 HAS BEEN ELIMINATED AT NODE 80 INSTANCE 
             LAYER2-1 BOUNDARY CONDITION TYPE XSYMM MAY NOT BE APPLIED AT THIS 
             NODE

 ***WARNING: DEGREE OF FREEDOM 5 HAS BEEN ELIMINATED AT NODE 80 INSTANCE 
             LAYER2-1 BOUNDARY CONDITION TYPE XSYMM MAY NOT BE APPLIED AT THIS 
             NODE

 ***WARNING: DEGREE OF FREEDOM 6 HAS BEEN ELIMINATED AT NODE 80 INSTANCE 
             LAYER2-1 BOUNDARY CONDITION TYPE XSYMM MAY NOT BE APPLIED AT THIS 
             NODE

 ***WARNING: DEGREE OF FREEDOM 1 HAS BEEN ELIMINATED AT NODE 81 INSTANCE 
             LAYER2-1 BOUNDARY CONDITION TYPE XSYMM MAY NOT BE APPLIED AT THIS 
             NODE

 ***WARNING: DEGREE OF FREEDOM 5 HAS BEEN ELIMINATED AT NODE 81 INSTANCE 
             LAYER2-1 BOUNDARY CONDITION TYPE XSYMM MAY NOT BE APPLIED AT THIS 
             NODE

 ***WARNING: DEGREE OF FREEDOM 6 HAS BEEN ELIMINATED AT NODE 81 INSTANCE 
             LAYER2-1 BOUNDARY CONDITION TYPE XSYMM MAY NOT BE APPLIED AT THIS 
             NODE

 ***WARNING: DEGREE OF FREEDOM 1 HAS BEEN ELIMINATED AT NODE 82 INSTANCE 
             LAYER2-1 BOUNDARY CONDITION TYPE XSYMM MAY NOT BE APPLIED AT THIS 
             NODE

 ***WARNING: DEGREE OF FREEDOM 5 HAS BEEN ELIMINATED AT NODE 82 INSTANCE 
             LAYER2-1 BOUNDARY CONDITION TYPE XSYMM MAY NOT BE APPLIED AT THIS 
             NODE

 ***WARNING: DEGREE OF FREEDOM 6 HAS BEEN ELIMINATED AT NODE 82 INSTANCE 
             LAYER2-1 BOUNDARY CONDITION TYPE XSYMM MAY NOT BE APPLIED AT THIS 
             NODE

 ***WARNING: DEGREE OF FREEDOM 1 HAS BEEN ELIMINATED AT NODE 83 INSTANCE 
             LAYER2-1 BOUNDARY CONDITION TYPE XSYMM MAY NOT BE APPLIED AT THIS 
             NODE

 ***WARNING: DEGREE OF FREEDOM 5 HAS BEEN ELIMINATED AT NODE 83 INSTANCE 
             LAYER2-1 BOUNDARY CONDITION TYPE XSYMM MAY NOT BE APPLIED AT THIS 
             NODE

 ***WARNING: DEGREE OF FREEDOM 6 HAS BEEN ELIMINATED AT NODE 83 INSTANCE 
             LAYER2-1 BOUNDARY CONDITION TYPE XSYMM MAY NOT BE APPLIED AT THIS 
             NODE

 ***WARNING: DEGREE OF FREEDOM 1 HAS BEEN ELIMINATED AT NODE 84 INSTANCE 
             LAYER2-1 BOUNDARY CONDITION TYPE XSYMM MAY NOT BE APPLIED AT THIS 
             NODE

 ***WARNING: DEGREE OF FREEDOM 5 HAS BEEN ELIMINATED AT NODE 84 INSTANCE 
             LAYER2-1 BOUNDARY CONDITION TYPE XSYMM MAY NOT BE APPLIED AT THIS 
             NODE

 ***WARNING: DEGREE OF FREEDOM 6 HAS BEEN ELIMINATED AT NODE 84 INSTANCE 
             LAYER2-1 BOUNDARY CONDITION TYPE XSYMM MAY NOT BE APPLIED AT THIS 
             NODE

 ***WARNING: DEGREE OF FREEDOM 1 HAS BEEN ELIMINATED AT NODE 85 INSTANCE 
             LAYER2-1 BOUNDARY CONDITION TYPE XSYMM MAY NOT BE APPLIED AT THIS 
             NODE

 ***WARNING: DEGREE OF FREEDOM 5 HAS BEEN ELIMINATED AT NODE 85 INSTANCE 
             LAYER2-1 BOUNDARY CONDITION TYPE XSYMM MAY NOT BE APPLIED AT THIS 
             NODE

 ***WARNING: DEGREE OF FREEDOM 6 HAS BEEN ELIMINATED AT NODE 85 INSTANCE 
             LAYER2-1 BOUNDARY CONDITION TYPE XSYMM MAY NOT BE APPLIED AT THIS 
             NODE

 ***WARNING: DEGREE OF FREEDOM 1 HAS BEEN ELIMINATED AT NODE 86 INSTANCE 
             LAYER2-1 BOUNDARY CONDITION TYPE XSYMM MAY NOT BE APPLIED AT THIS 
             NODE

 ***WARNING: DEGREE OF FREEDOM 5 HAS BEEN ELIMINATED AT NODE 86 INSTANCE 
             LAYER2-1 BOUNDARY CONDITION TYPE XSYMM MAY NOT BE APPLIED AT THIS 
             NODE

 ***WARNING: DEGREE OF FREEDOM 6 HAS BEEN ELIMINATED AT NODE 86 INSTANCE 
             LAYER2-1 BOUNDARY CONDITION TYPE XSYMM MAY NOT BE APPLIED AT THIS 
             NODE

 ***WARNING: DEGREE OF FREEDOM 1 HAS BEEN ELIMINATED AT NODE 87 INSTANCE 
             LAYER2-1 BOUNDARY CONDITION TYPE XSYMM MAY NOT BE APPLIED AT THIS 
             NODE

 ***WARNING: DEGREE OF FREEDOM 5 HAS BEEN ELIMINATED AT NODE 87 INSTANCE 
             LAYER2-1 BOUNDARY CONDITION TYPE XSYMM MAY NOT BE APPLIED AT THIS 
             NODE

 ***WARNING: DEGREE OF FREEDOM 6 HAS BEEN ELIMINATED AT NODE 87 INSTANCE 
             LAYER2-1 BOUNDARY CONDITION TYPE XSYMM MAY NOT BE APPLIED AT THIS 
             NODE

 ***WARNING: DEGREE OF FREEDOM 1 HAS BEEN ELIMINATED AT NODE 88 INSTANCE 
             LAYER2-1 BOUNDARY CONDITION TYPE XSYMM MAY NOT BE APPLIED AT THIS 
             NODE

 ***WARNING: DEGREE OF FREEDOM 5 HAS BEEN ELIMINATED AT NODE 88 INSTANCE 
             LAYER2-1 BOUNDARY CONDITION TYPE XSYMM MAY NOT BE APPLIED AT THIS 
             NODE

 ***WARNING: DEGREE OF FREEDOM 6 HAS BEEN ELIMINATED AT NODE 88 INSTANCE 
             LAYER2-1 BOUNDARY CONDITION TYPE XSYMM MAY NOT BE APPLIED AT THIS 
             NODE

 ***WARNING: DEGREE OF FREEDOM 1 HAS BEEN ELIMINATED AT NODE 89 INSTANCE 
             LAYER2-1 BOUNDARY CONDITION TYPE XSYMM MAY NOT BE APPLIED AT THIS 
             NODE

 ***WARNING: DEGREE OF FREEDOM 5 HAS BEEN ELIMINATED AT NODE 89 INSTANCE 
             LAYER2-1 BOUNDARY CONDITION TYPE XSYMM MAY NOT BE APPLIED AT THIS 
             NODE

 ***WARNING: DEGREE OF FREEDOM 6 HAS BEEN ELIMINATED AT NODE 89 INSTANCE 
             LAYER2-1 BOUNDARY CONDITION TYPE XSYMM MAY NOT BE APPLIED AT THIS 
             NODE

 ***WARNING: DEGREE OF FREEDOM 1 HAS BEEN ELIMINATED AT NODE 90 INSTANCE 
             LAYER2-1 BOUNDARY CONDITION TYPE XSYMM MAY NOT BE APPLIED AT THIS 
             NODE

 ***WARNING: DEGREE OF FREEDOM 5 HAS BEEN ELIMINATED AT NODE 90 INSTANCE 
             LAYER2-1 BOUNDARY CONDITION TYPE XSYMM MAY NOT BE APPLIED AT THIS 
             NODE

 ***WARNING: DEGREE OF FREEDOM 6 HAS BEEN ELIMINATED AT NODE 90 INSTANCE 
             LAYER2-1 BOUNDARY CONDITION TYPE XSYMM MAY NOT BE APPLIED AT THIS 
             NODE

 ***WARNING: DEGREE OF FREEDOM 1 HAS BEEN ELIMINATED AT NODE 91 INSTANCE 
             LAYER2-1 BOUNDARY CONDITION TYPE XSYMM MAY NOT BE APPLIED AT THIS 
             NODE

 ***WARNING: DEGREE OF FREEDOM 5 HAS BEEN ELIMINATED AT NODE 91 INSTANCE 
             LAYER2-1 BOUNDARY CONDITION TYPE XSYMM MAY NOT BE APPLIED AT THIS 
             NODE

 ***WARNING: DEGREE OF FREEDOM 6 HAS BEEN ELIMINATED AT NODE 91 INSTANCE 
             LAYER2-1 BOUNDARY CONDITION TYPE XSYMM MAY NOT BE APPLIED AT THIS 
             NODE

 ***WARNING: DEGREE OF FREEDOM 1 HAS BEEN ELIMINATED AT NODE 92 INSTANCE 
             LAYER2-1 BOUNDARY CONDITION TYPE XSYMM MAY NOT BE APPLIED AT THIS 
             NODE

 ***WARNING: DEGREE OF FREEDOM 5 HAS BEEN ELIMINATED AT NODE 92 INSTANCE 
             LAYER2-1 BOUNDARY CONDITION TYPE XSYMM MAY NOT BE APPLIED AT THIS 
             NODE

 ***WARNING: DEGREE OF FREEDOM 6 HAS BEEN ELIMINATED AT NODE 92 INSTANCE 
             LAYER2-1 BOUNDARY CONDITION TYPE XSYMM MAY NOT BE APPLIED AT THIS 
             NODE

 ***WARNING: DEGREE OF FREEDOM 1 HAS BEEN ELIMINATED AT NODE 93 INSTANCE 
             LAYER2-1 BOUNDARY CONDITION TYPE XSYMM MAY NOT BE APPLIED AT THIS 
             NODE

 ***WARNING: DEGREE OF FREEDOM 5 HAS BEEN ELIMINATED AT NODE 93 INSTANCE 
             LAYER2-1 BOUNDARY CONDITION TYPE XSYMM MAY NOT BE APPLIED AT THIS 
             NODE

 ***WARNING: DEGREE OF FREEDOM 6 HAS BEEN ELIMINATED AT NODE 93 INSTANCE 
             LAYER2-1 BOUNDARY CONDITION TYPE XSYMM MAY NOT BE APPLIED AT THIS 
             NODE

 ***WARNING: DEGREE OF FREEDOM 1 HAS BEEN ELIMINATED AT NODE 94 INSTANCE 
             LAYER2-1 BOUNDARY CONDITION TYPE XSYMM MAY NOT BE APPLIED AT THIS 
             NODE

 ***WARNING: DEGREE OF FREEDOM 5 HAS BEEN ELIMINATED AT NODE 94 INSTANCE 
             LAYER2-1 BOUNDARY CONDITION TYPE XSYMM MAY NOT BE APPLIED AT THIS 
             NODE

 ***WARNING: DEGREE OF FREEDOM 6 HAS BEEN ELIMINATED AT NODE 94 INSTANCE 
             LAYER2-1 BOUNDARY CONDITION TYPE XSYMM MAY NOT BE APPLIED AT THIS 
             NODE

 ***WARNING: DEGREE OF FREEDOM 1 HAS BEEN ELIMINATED AT NODE 95 INSTANCE 
             LAYER2-1 BOUNDARY CONDITION TYPE XSYMM MAY NOT BE APPLIED AT THIS 
             NODE

 ***WARNING: DEGREE OF FREEDOM 5 HAS BEEN ELIMINATED AT NODE 95 INSTANCE 
             LAYER2-1 BOUNDARY CONDITION TYPE XSYMM MAY NOT BE APPLIED AT THIS 
             NODE

 ***WARNING: DEGREE OF FREEDOM 6 HAS BEEN ELIMINATED AT NODE 95 INSTANCE 
             LAYER2-1 BOUNDARY CONDITION TYPE XSYMM MAY NOT BE APPLIED AT THIS 
             NODE

 ***WARNING: DEGREE OF FREEDOM 1 HAS BEEN ELIMINATED AT NODE 96 INSTANCE 
             LAYER2-1 BOUNDARY CONDITION TYPE XSYMM MAY NOT BE APPLIED AT THIS 
             NODE

 ***WARNING: DEGREE OF FREEDOM 5 HAS BEEN ELIMINATED AT NODE 96 INSTANCE 
             LAYER2-1 BOUNDARY CONDITION TYPE XSYMM MAY NOT BE APPLIED AT THIS 
             NODE

 ***WARNING: DEGREE OF FREEDOM 6 HAS BEEN ELIMINATED AT NODE 96 INSTANCE 
             LAYER2-1 BOUNDARY CONDITION TYPE XSYMM MAY NOT BE APPLIED AT THIS 
             NODE

 ***WARNING: DEGREE OF FREEDOM 1 HAS BEEN ELIMINATED AT NODE 97 INSTANCE 
             LAYER2-1 BOUNDARY CONDITION TYPE XSYMM MAY NOT BE APPLIED AT THIS 
             NODE

 ***WARNING: DEGREE OF FREEDOM 5 HAS BEEN ELIMINATED AT NODE 97 INSTANCE 
             LAYER2-1 BOUNDARY CONDITION TYPE XSYMM MAY NOT BE APPLIED AT THIS 
             NODE

 ***WARNING: DEGREE OF FREEDOM 6 HAS BEEN ELIMINATED AT NODE 97 INSTANCE 
             LAYER2-1 BOUNDARY CONDITION TYPE XSYMM MAY NOT BE APPLIED AT THIS 
             NODE

 ***WARNING: DEGREE OF FREEDOM 1 HAS BEEN ELIMINATED AT NODE 98 INSTANCE 
             LAYER2-1 BOUNDARY CONDITION TYPE XSYMM MAY NOT BE APPLIED AT THIS 
             NODE

 ***WARNING: DEGREE OF FREEDOM 5 HAS BEEN ELIMINATED AT NODE 98 INSTANCE 
             LAYER2-1 BOUNDARY CONDITION TYPE XSYMM MAY NOT BE APPLIED AT THIS 
             NODE

 ***WARNING: DEGREE OF FREEDOM 6 HAS BEEN ELIMINATED AT NODE 98 INSTANCE 
             LAYER2-1 BOUNDARY CONDITION TYPE XSYMM MAY NOT BE APPLIED AT THIS 
             NODE

 ***WARNING: DEGREE OF FREEDOM 1 HAS BEEN ELIMINATED AT NODE 99 INSTANCE 
             LAYER2-1 BOUNDARY CONDITION TYPE XSYMM MAY NOT BE APPLIED AT THIS 
             NODE

 ***WARNING: DEGREE OF FREEDOM 5 HAS BEEN ELIMINATED AT NODE 99 INSTANCE 
             LAYER2-1 BOUNDARY CONDITION TYPE XSYMM MAY NOT BE APPLIED AT THIS 
             NODE

 ***WARNING: DEGREE OF FREEDOM 6 HAS BEEN ELIMINATED AT NODE 99 INSTANCE 
             LAYER2-1 BOUNDARY CONDITION TYPE XSYMM MAY NOT BE APPLIED AT THIS 
             NODE

 ***WARNING: DEGREE OF FREEDOM 1 HAS BEEN ELIMINATED AT NODE 100 INSTANCE 
             LAYER2-1 BOUNDARY CONDITION TYPE XSYMM MAY NOT BE APPLIED AT THIS 
             NODE

 ***WARNING: DEGREE OF FREEDOM 5 HAS BEEN ELIMINATED AT NODE 100 INSTANCE 
             LAYER2-1 BOUNDARY CONDITION TYPE XSYMM MAY NOT BE APPLIED AT THIS 
             NODE

 ***WARNING: DEGREE OF FREEDOM 6 HAS BEEN ELIMINATED AT NODE 100 INSTANCE 
             LAYER2-1 BOUNDARY CONDITION TYPE XSYMM MAY NOT BE APPLIED AT THIS 
             NODE

 ***WARNING: DEGREE OF FREEDOM 1 HAS BEEN ELIMINATED AT NODE 101 INSTANCE 
             LAYER2-1 BOUNDARY CONDITION TYPE XSYMM MAY NOT BE APPLIED AT THIS 
             NODE

 ***WARNING: DEGREE OF FREEDOM 5 HAS BEEN ELIMINATED AT NODE 101 INSTANCE 
             LAYER2-1 BOUNDARY CONDITION TYPE XSYMM MAY NOT BE APPLIED AT THIS 
             NODE

 ***WARNING: DEGREE OF FREEDOM 6 HAS BEEN ELIMINATED AT NODE 101 INSTANCE 
             LAYER2-1 BOUNDARY CONDITION TYPE XSYMM MAY NOT BE APPLIED AT THIS 
             NODE

 ***WARNING: DEGREE OF FREEDOM 1 HAS BEEN ELIMINATED AT NODE 102 INSTANCE 
             LAYER2-1 BOUNDARY CONDITION TYPE XSYMM MAY NOT BE APPLIED AT THIS 
             NODE

 ***WARNING: DEGREE OF FREEDOM 5 HAS BEEN ELIMINATED AT NODE 102 INSTANCE 
             LAYER2-1 BOUNDARY CONDITION TYPE XSYMM MAY NOT BE APPLIED AT THIS 
             NODE

 ***WARNING: DEGREE OF FREEDOM 6 HAS BEEN ELIMINATED AT NODE 102 INSTANCE 
             LAYER2-1 BOUNDARY CONDITION TYPE XSYMM MAY NOT BE APPLIED AT THIS 
             NODE

 ***WARNING: DEGREE OF FREEDOM 1 HAS BEEN ELIMINATED AT NODE 103 INSTANCE 
             LAYER2-1 BOUNDARY CONDITION TYPE XSYMM MAY NOT BE APPLIED AT THIS 
             NODE

 ***WARNING: DEGREE OF FREEDOM 5 HAS BEEN ELIMINATED AT NODE 103 INSTANCE 
             LAYER2-1 BOUNDARY CONDITION TYPE XSYMM MAY NOT BE APPLIED AT THIS 
             NODE

 ***WARNING: DEGREE OF FREEDOM 6 HAS BEEN ELIMINATED AT NODE 103 INSTANCE 
             LAYER2-1 BOUNDARY CONDITION TYPE XSYMM MAY NOT BE APPLIED AT THIS 
             NODE

 ***WARNING: DEGREE OF FREEDOM 1 HAS BEEN ELIMINATED AT NODE 104 INSTANCE 
             LAYER2-1 BOUNDARY CONDITION TYPE XSYMM MAY NOT BE APPLIED AT THIS 
             NODE

 ***WARNING: DEGREE OF FREEDOM 5 HAS BEEN ELIMINATED AT NODE 104 INSTANCE 
             LAYER2-1 BOUNDARY CONDITION TYPE XSYMM MAY NOT BE APPLIED AT THIS 
             NODE

 ***WARNING: DEGREE OF FREEDOM 6 HAS BEEN ELIMINATED AT NODE 104 INSTANCE 
             LAYER2-1 BOUNDARY CONDITION TYPE XSYMM MAY NOT BE APPLIED AT THIS 
             NODE

 ***WARNING: DEGREE OF FREEDOM 1 HAS BEEN ELIMINATED AT NODE 105 INSTANCE 
             LAYER2-1 BOUNDARY CONDITION TYPE XSYMM MAY NOT BE APPLIED AT THIS 
             NODE

 ***WARNING: DEGREE OF FREEDOM 5 HAS BEEN ELIMINATED AT NODE 105 INSTANCE 
             LAYER2-1 BOUNDARY CONDITION TYPE XSYMM MAY NOT BE APPLIED AT THIS 
             NODE

 ***WARNING: DEGREE OF FREEDOM 6 HAS BEEN ELIMINATED AT NODE 105 INSTANCE 
             LAYER2-1 BOUNDARY CONDITION TYPE XSYMM MAY NOT BE APPLIED AT THIS 
             NODE

 ***WARNING: DEGREE OF FREEDOM 1 HAS BEEN ELIMINATED AT NODE 106 INSTANCE 
             LAYER2-1 BOUNDARY CONDITION TYPE XSYMM MAY NOT BE APPLIED AT THIS 
             NODE

 ***WARNING: DEGREE OF FREEDOM 5 HAS BEEN ELIMINATED AT NODE 106 INSTANCE 
             LAYER2-1 BOUNDARY CONDITION TYPE XSYMM MAY NOT BE APPLIED AT THIS 
             NODE

 ***WARNING: DEGREE OF FREEDOM 6 HAS BEEN ELIMINATED AT NODE 106 INSTANCE 
             LAYER2-1 BOUNDARY CONDITION TYPE XSYMM MAY NOT BE APPLIED AT THIS 
             NODE

 ***WARNING: DEGREE OF FREEDOM 1 HAS BEEN ELIMINATED AT NODE 107 INSTANCE 
             LAYER2-1 BOUNDARY CONDITION TYPE XSYMM MAY NOT BE APPLIED AT THIS 
             NODE

 ***WARNING: DEGREE OF FREEDOM 5 HAS BEEN ELIMINATED AT NODE 107 INSTANCE 
             LAYER2-1 BOUNDARY CONDITION TYPE XSYMM MAY NOT BE APPLIED AT THIS 
             NODE

 ***WARNING: DEGREE OF FREEDOM 6 HAS BEEN ELIMINATED AT NODE 107 INSTANCE 
             LAYER2-1 BOUNDARY CONDITION TYPE XSYMM MAY NOT BE APPLIED AT THIS 
             NODE

 ***WARNING: DEGREE OF FREEDOM 2 HAS BEEN ELIMINATED AT NODE 1 INSTANCE 
             LAYER3-1 BOUNDARY CONDITION TYPE YSYMM MAY NOT BE APPLIED AT THIS 
             NODE

 ***WARNING: DEGREE OF FREEDOM 4 HAS BEEN ELIMINATED AT NODE 1 INSTANCE 
             LAYER3-1 BOUNDARY CONDITION TYPE YSYMM MAY NOT BE APPLIED AT THIS 
             NODE

 ***WARNING: DEGREE OF FREEDOM 6 HAS BEEN ELIMINATED AT NODE 1 INSTANCE 
             LAYER3-1 BOUNDARY CONDITION TYPE YSYMM MAY NOT BE APPLIED AT THIS 
             NODE

 ***WARNING: DEGREE OF FREEDOM 1 HAS BEEN ELIMINATED AT NODE 2 INSTANCE 
             LAYER3-1 BOUNDARY CONDITION TYPE XSYMM MAY NOT BE APPLIED AT THIS 
             NODE

 ***WARNING: DEGREE OF FREEDOM 5 HAS BEEN ELIMINATED AT NODE 2 INSTANCE 
             LAYER3-1 BOUNDARY CONDITION TYPE XSYMM MAY NOT BE APPLIED AT THIS 
             NODE

 ***WARNING: DEGREE OF FREEDOM 6 HAS BEEN ELIMINATED AT NODE 2 INSTANCE 
             LAYER3-1 BOUNDARY CONDITION TYPE XSYMM MAY NOT BE APPLIED AT THIS 
             NODE

 ***WARNING: DEGREE OF FREEDOM 2 HAS BEEN ELIMINATED AT NODE 2 INSTANCE 
             LAYER3-1 BOUNDARY CONDITION TYPE YSYMM MAY NOT BE APPLIED AT THIS 
             NODE

 ***WARNING: DEGREE OF FREEDOM 4 HAS BEEN ELIMINATED AT NODE 2 INSTANCE 
             LAYER3-1 BOUNDARY CONDITION TYPE YSYMM MAY NOT BE APPLIED AT THIS 
             NODE

 ***WARNING: DEGREE OF FREEDOM 6 HAS BEEN ELIMINATED AT NODE 2 INSTANCE 
             LAYER3-1 BOUNDARY CONDITION TYPE YSYMM MAY NOT BE APPLIED AT THIS 
             NODE

 ***WARNING: DEGREE OF FREEDOM 1 HAS BEEN ELIMINATED AT NODE 13 INSTANCE 
             LAYER3-1 BOUNDARY CONDITION TYPE XSYMM MAY NOT BE APPLIED AT THIS 
             NODE

 ***WARNING: DEGREE OF FREEDOM 5 HAS BEEN ELIMINATED AT NODE 13 INSTANCE 
             LAYER3-1 BOUNDARY CONDITION TYPE XSYMM MAY NOT BE APPLIED AT THIS 
             NODE

 ***WARNING: DEGREE OF FREEDOM 6 HAS BEEN ELIMINATED AT NODE 13 INSTANCE 
             LAYER3-1 BOUNDARY CONDITION TYPE XSYMM MAY NOT BE APPLIED AT THIS 
             NODE

 ***WARNING: DEGREE OF FREEDOM 2 HAS BEEN ELIMINATED AT NODE 14 INSTANCE 
             LAYER3-1 BOUNDARY CONDITION TYPE YSYMM MAY NOT BE APPLIED AT THIS 
             NODE

 ***WARNING: DEGREE OF FREEDOM 4 HAS BEEN ELIMINATED AT NODE 14 INSTANCE 
             LAYER3-1 BOUNDARY CONDITION TYPE YSYMM MAY NOT BE APPLIED AT THIS 
             NODE

 ***WARNING: DEGREE OF FREEDOM 6 HAS BEEN ELIMINATED AT NODE 14 INSTANCE 
             LAYER3-1 BOUNDARY CONDITION TYPE YSYMM MAY NOT BE APPLIED AT THIS 
             NODE

 ***WARNING: DEGREE OF FREEDOM 2 HAS BEEN ELIMINATED AT NODE 15 INSTANCE 
             LAYER3-1 BOUNDARY CONDITION TYPE YSYMM MAY NOT BE APPLIED AT THIS 
             NODE

 ***WARNING: DEGREE OF FREEDOM 4 HAS BEEN ELIMINATED AT NODE 15 INSTANCE 
             LAYER3-1 BOUNDARY CONDITION TYPE YSYMM MAY NOT BE APPLIED AT THIS 
             NODE

 ***WARNING: DEGREE OF FREEDOM 6 HAS BEEN ELIMINATED AT NODE 15 INSTANCE 
             LAYER3-1 BOUNDARY CONDITION TYPE YSYMM MAY NOT BE APPLIED AT THIS 
             NODE

 ***WARNING: DEGREE OF FREEDOM 2 HAS BEEN ELIMINATED AT NODE 16 INSTANCE 
             LAYER3-1 BOUNDARY CONDITION TYPE YSYMM MAY NOT BE APPLIED AT THIS 
             NODE

 ***WARNING: DEGREE OF FREEDOM 4 HAS BEEN ELIMINATED AT NODE 16 INSTANCE 
             LAYER3-1 BOUNDARY CONDITION TYPE YSYMM MAY NOT BE APPLIED AT THIS 
             NODE

 ***WARNING: DEGREE OF FREEDOM 6 HAS BEEN ELIMINATED AT NODE 16 INSTANCE 
             LAYER3-1 BOUNDARY CONDITION TYPE YSYMM MAY NOT BE APPLIED AT THIS 
             NODE

 ***WARNING: DEGREE OF FREEDOM 2 HAS BEEN ELIMINATED AT NODE 17 INSTANCE 
             LAYER3-1 BOUNDARY CONDITION TYPE YSYMM MAY NOT BE APPLIED AT THIS 
             NODE

 ***WARNING: DEGREE OF FREEDOM 4 HAS BEEN ELIMINATED AT NODE 17 INSTANCE 
             LAYER3-1 BOUNDARY CONDITION TYPE YSYMM MAY NOT BE APPLIED AT THIS 
             NODE

 ***WARNING: DEGREE OF FREEDOM 6 HAS BEEN ELIMINATED AT NODE 17 INSTANCE 
             LAYER3-1 BOUNDARY CONDITION TYPE YSYMM MAY NOT BE APPLIED AT THIS 
             NODE

 ***WARNING: DEGREE OF FREEDOM 2 HAS BEEN ELIMINATED AT NODE 18 INSTANCE 
             LAYER3-1 BOUNDARY CONDITION TYPE YSYMM MAY NOT BE APPLIED AT THIS 
             NODE

 ***WARNING: DEGREE OF FREEDOM 4 HAS BEEN ELIMINATED AT NODE 18 INSTANCE 
             LAYER3-1 BOUNDARY CONDITION TYPE YSYMM MAY NOT BE APPLIED AT THIS 
             NODE

 ***WARNING: DEGREE OF FREEDOM 6 HAS BEEN ELIMINATED AT NODE 18 INSTANCE 
             LAYER3-1 BOUNDARY CONDITION TYPE YSYMM MAY NOT BE APPLIED AT THIS 
             NODE

 ***WARNING: DEGREE OF FREEDOM 2 HAS BEEN ELIMINATED AT NODE 19 INSTANCE 
             LAYER3-1 BOUNDARY CONDITION TYPE YSYMM MAY NOT BE APPLIED AT THIS 
             NODE

 ***WARNING: DEGREE OF FREEDOM 4 HAS BEEN ELIMINATED AT NODE 19 INSTANCE 
             LAYER3-1 BOUNDARY CONDITION TYPE YSYMM MAY NOT BE APPLIED AT THIS 
             NODE

 ***WARNING: DEGREE OF FREEDOM 6 HAS BEEN ELIMINATED AT NODE 19 INSTANCE 
             LAYER3-1 BOUNDARY CONDITION TYPE YSYMM MAY NOT BE APPLIED AT THIS 
             NODE

 ***WARNING: DEGREE OF FREEDOM 2 HAS BEEN ELIMINATED AT NODE 20 INSTANCE 
             LAYER3-1 BOUNDARY CONDITION TYPE YSYMM MAY NOT BE APPLIED AT THIS 
             NODE

 ***WARNING: DEGREE OF FREEDOM 4 HAS BEEN ELIMINATED AT NODE 20 INSTANCE 
             LAYER3-1 BOUNDARY CONDITION TYPE YSYMM MAY NOT BE APPLIED AT THIS 
             NODE

 ***WARNING: DEGREE OF FREEDOM 6 HAS BEEN ELIMINATED AT NODE 20 INSTANCE 
             LAYER3-1 BOUNDARY CONDITION TYPE YSYMM MAY NOT BE APPLIED AT THIS 
             NODE

 ***WARNING: DEGREE OF FREEDOM 2 HAS BEEN ELIMINATED AT NODE 21 INSTANCE 
             LAYER3-1 BOUNDARY CONDITION TYPE YSYMM MAY NOT BE APPLIED AT THIS 
             NODE

 ***WARNING: DEGREE OF FREEDOM 4 HAS BEEN ELIMINATED AT NODE 21 INSTANCE 
             LAYER3-1 BOUNDARY CONDITION TYPE YSYMM MAY NOT BE APPLIED AT THIS 
             NODE

 ***WARNING: DEGREE OF FREEDOM 6 HAS BEEN ELIMINATED AT NODE 21 INSTANCE 
             LAYER3-1 BOUNDARY CONDITION TYPE YSYMM MAY NOT BE APPLIED AT THIS 
             NODE

 ***WARNING: DEGREE OF FREEDOM 2 HAS BEEN ELIMINATED AT NODE 22 INSTANCE 
             LAYER3-1 BOUNDARY CONDITION TYPE YSYMM MAY NOT BE APPLIED AT THIS 
             NODE

 ***WARNING: DEGREE OF FREEDOM 4 HAS BEEN ELIMINATED AT NODE 22 INSTANCE 
             LAYER3-1 BOUNDARY CONDITION TYPE YSYMM MAY NOT BE APPLIED AT THIS 
             NODE

 ***WARNING: DEGREE OF FREEDOM 6 HAS BEEN ELIMINATED AT NODE 22 INSTANCE 
             LAYER3-1 BOUNDARY CONDITION TYPE YSYMM MAY NOT BE APPLIED AT THIS 
             NODE

 ***WARNING: DEGREE OF FREEDOM 2 HAS BEEN ELIMINATED AT NODE 23 INSTANCE 
             LAYER3-1 BOUNDARY CONDITION TYPE YSYMM MAY NOT BE APPLIED AT THIS 
             NODE

 ***WARNING: DEGREE OF FREEDOM 4 HAS BEEN ELIMINATED AT NODE 23 INSTANCE 
             LAYER3-1 BOUNDARY CONDITION TYPE YSYMM MAY NOT BE APPLIED AT THIS 
             NODE

 ***WARNING: DEGREE OF FREEDOM 6 HAS BEEN ELIMINATED AT NODE 23 INSTANCE 
             LAYER3-1 BOUNDARY CONDITION TYPE YSYMM MAY NOT BE APPLIED AT THIS 
             NODE

 ***WARNING: DEGREE OF FREEDOM 2 HAS BEEN ELIMINATED AT NODE 24 INSTANCE 
             LAYER3-1 BOUNDARY CONDITION TYPE YSYMM MAY NOT BE APPLIED AT THIS 
             NODE

 ***WARNING: DEGREE OF FREEDOM 4 HAS BEEN ELIMINATED AT NODE 24 INSTANCE 
             LAYER3-1 BOUNDARY CONDITION TYPE YSYMM MAY NOT BE APPLIED AT THIS 
             NODE

 ***WARNING: DEGREE OF FREEDOM 6 HAS BEEN ELIMINATED AT NODE 24 INSTANCE 
             LAYER3-1 BOUNDARY CONDITION TYPE YSYMM MAY NOT BE APPLIED AT THIS 
             NODE

 ***WARNING: DEGREE OF FREEDOM 2 HAS BEEN ELIMINATED AT NODE 25 INSTANCE 
             LAYER3-1 BOUNDARY CONDITION TYPE YSYMM MAY NOT BE APPLIED AT THIS 
             NODE

 ***WARNING: DEGREE OF FREEDOM 4 HAS BEEN ELIMINATED AT NODE 25 INSTANCE 
             LAYER3-1 BOUNDARY CONDITION TYPE YSYMM MAY NOT BE APPLIED AT THIS 
             NODE

 ***WARNING: DEGREE OF FREEDOM 6 HAS BEEN ELIMINATED AT NODE 25 INSTANCE 
             LAYER3-1 BOUNDARY CONDITION TYPE YSYMM MAY NOT BE APPLIED AT THIS 
             NODE

 ***WARNING: DEGREE OF FREEDOM 2 HAS BEEN ELIMINATED AT NODE 26 INSTANCE 
             LAYER3-1 BOUNDARY CONDITION TYPE YSYMM MAY NOT BE APPLIED AT THIS 
             NODE

 ***WARNING: DEGREE OF FREEDOM 4 HAS BEEN ELIMINATED AT NODE 26 INSTANCE 
             LAYER3-1 BOUNDARY CONDITION TYPE YSYMM MAY NOT BE APPLIED AT THIS 
             NODE

 ***WARNING: DEGREE OF FREEDOM 6 HAS BEEN ELIMINATED AT NODE 26 INSTANCE 
             LAYER3-1 BOUNDARY CONDITION TYPE YSYMM MAY NOT BE APPLIED AT THIS 
             NODE

 ***WARNING: DEGREE OF FREEDOM 2 HAS BEEN ELIMINATED AT NODE 27 INSTANCE 
             LAYER3-1 BOUNDARY CONDITION TYPE YSYMM MAY NOT BE APPLIED AT THIS 
             NODE

 ***WARNING: DEGREE OF FREEDOM 4 HAS BEEN ELIMINATED AT NODE 27 INSTANCE 
             LAYER3-1 BOUNDARY CONDITION TYPE YSYMM MAY NOT BE APPLIED AT THIS 
             NODE

 ***WARNING: DEGREE OF FREEDOM 6 HAS BEEN ELIMINATED AT NODE 27 INSTANCE 
             LAYER3-1 BOUNDARY CONDITION TYPE YSYMM MAY NOT BE APPLIED AT THIS 
             NODE

 ***WARNING: DEGREE OF FREEDOM 2 HAS BEEN ELIMINATED AT NODE 28 INSTANCE 
             LAYER3-1 BOUNDARY CONDITION TYPE YSYMM MAY NOT BE APPLIED AT THIS 
             NODE

 ***WARNING: DEGREE OF FREEDOM 4 HAS BEEN ELIMINATED AT NODE 28 INSTANCE 
             LAYER3-1 BOUNDARY CONDITION TYPE YSYMM MAY NOT BE APPLIED AT THIS 
             NODE

 ***WARNING: DEGREE OF FREEDOM 6 HAS BEEN ELIMINATED AT NODE 28 INSTANCE 
             LAYER3-1 BOUNDARY CONDITION TYPE YSYMM MAY NOT BE APPLIED AT THIS 
             NODE

 ***WARNING: DEGREE OF FREEDOM 2 HAS BEEN ELIMINATED AT NODE 29 INSTANCE 
             LAYER3-1 BOUNDARY CONDITION TYPE YSYMM MAY NOT BE APPLIED AT THIS 
             NODE

 ***WARNING: DEGREE OF FREEDOM 4 HAS BEEN ELIMINATED AT NODE 29 INSTANCE 
             LAYER3-1 BOUNDARY CONDITION TYPE YSYMM MAY NOT BE APPLIED AT THIS 
             NODE

 ***WARNING: DEGREE OF FREEDOM 6 HAS BEEN ELIMINATED AT NODE 29 INSTANCE 
             LAYER3-1 BOUNDARY CONDITION TYPE YSYMM MAY NOT BE APPLIED AT THIS 
             NODE

 ***WARNING: DEGREE OF FREEDOM 2 HAS BEEN ELIMINATED AT NODE 30 INSTANCE 
             LAYER3-1 BOUNDARY CONDITION TYPE YSYMM MAY NOT BE APPLIED AT THIS 
             NODE

 ***WARNING: DEGREE OF FREEDOM 4 HAS BEEN ELIMINATED AT NODE 30 INSTANCE 
             LAYER3-1 BOUNDARY CONDITION TYPE YSYMM MAY NOT BE APPLIED AT THIS 
             NODE

 ***WARNING: DEGREE OF FREEDOM 6 HAS BEEN ELIMINATED AT NODE 30 INSTANCE 
             LAYER3-1 BOUNDARY CONDITION TYPE YSYMM MAY NOT BE APPLIED AT THIS 
             NODE

 ***WARNING: DEGREE OF FREEDOM 2 HAS BEEN ELIMINATED AT NODE 31 INSTANCE 
             LAYER3-1 BOUNDARY CONDITION TYPE YSYMM MAY NOT BE APPLIED AT THIS 
             NODE

 ***WARNING: DEGREE OF FREEDOM 4 HAS BEEN ELIMINATED AT NODE 31 INSTANCE 
             LAYER3-1 BOUNDARY CONDITION TYPE YSYMM MAY NOT BE APPLIED AT THIS 
             NODE

 ***WARNING: DEGREE OF FREEDOM 6 HAS BEEN ELIMINATED AT NODE 31 INSTANCE 
             LAYER3-1 BOUNDARY CONDITION TYPE YSYMM MAY NOT BE APPLIED AT THIS 
             NODE

 ***WARNING: DEGREE OF FREEDOM 2 HAS BEEN ELIMINATED AT NODE 32 INSTANCE 
             LAYER3-1 BOUNDARY CONDITION TYPE YSYMM MAY NOT BE APPLIED AT THIS 
             NODE

 ***WARNING: DEGREE OF FREEDOM 4 HAS BEEN ELIMINATED AT NODE 32 INSTANCE 
             LAYER3-1 BOUNDARY CONDITION TYPE YSYMM MAY NOT BE APPLIED AT THIS 
             NODE

 ***WARNING: DEGREE OF FREEDOM 6 HAS BEEN ELIMINATED AT NODE 32 INSTANCE 
             LAYER3-1 BOUNDARY CONDITION TYPE YSYMM MAY NOT BE APPLIED AT THIS 
             NODE

 ***WARNING: DEGREE OF FREEDOM 2 HAS BEEN ELIMINATED AT NODE 33 INSTANCE 
             LAYER3-1 BOUNDARY CONDITION TYPE YSYMM MAY NOT BE APPLIED AT THIS 
             NODE

 ***WARNING: DEGREE OF FREEDOM 4 HAS BEEN ELIMINATED AT NODE 33 INSTANCE 
             LAYER3-1 BOUNDARY CONDITION TYPE YSYMM MAY NOT BE APPLIED AT THIS 
             NODE

 ***WARNING: DEGREE OF FREEDOM 6 HAS BEEN ELIMINATED AT NODE 33 INSTANCE 
             LAYER3-1 BOUNDARY CONDITION TYPE YSYMM MAY NOT BE APPLIED AT THIS 
             NODE

 ***WARNING: DEGREE OF FREEDOM 2 HAS BEEN ELIMINATED AT NODE 34 INSTANCE 
             LAYER3-1 BOUNDARY CONDITION TYPE YSYMM MAY NOT BE APPLIED AT THIS 
             NODE

 ***WARNING: DEGREE OF FREEDOM 4 HAS BEEN ELIMINATED AT NODE 34 INSTANCE 
             LAYER3-1 BOUNDARY CONDITION TYPE YSYMM MAY NOT BE APPLIED AT THIS 
             NODE

 ***WARNING: DEGREE OF FREEDOM 6 HAS BEEN ELIMINATED AT NODE 34 INSTANCE 
             LAYER3-1 BOUNDARY CONDITION TYPE YSYMM MAY NOT BE APPLIED AT THIS 
             NODE

 ***WARNING: DEGREE OF FREEDOM 2 HAS BEEN ELIMINATED AT NODE 35 INSTANCE 
             LAYER3-1 BOUNDARY CONDITION TYPE YSYMM MAY NOT BE APPLIED AT THIS 
             NODE

 ***WARNING: DEGREE OF FREEDOM 4 HAS BEEN ELIMINATED AT NODE 35 INSTANCE 
             LAYER3-1 BOUNDARY CONDITION TYPE YSYMM MAY NOT BE APPLIED AT THIS 
             NODE

 ***WARNING: DEGREE OF FREEDOM 6 HAS BEEN ELIMINATED AT NODE 35 INSTANCE 
             LAYER3-1 BOUNDARY CONDITION TYPE YSYMM MAY NOT BE APPLIED AT THIS 
             NODE

 ***WARNING: DEGREE OF FREEDOM 2 HAS BEEN ELIMINATED AT NODE 36 INSTANCE 
             LAYER3-1 BOUNDARY CONDITION TYPE YSYMM MAY NOT BE APPLIED AT THIS 
             NODE

 ***WARNING: DEGREE OF FREEDOM 4 HAS BEEN ELIMINATED AT NODE 36 INSTANCE 
             LAYER3-1 BOUNDARY CONDITION TYPE YSYMM MAY NOT BE APPLIED AT THIS 
             NODE

 ***WARNING: DEGREE OF FREEDOM 6 HAS BEEN ELIMINATED AT NODE 36 INSTANCE 
             LAYER3-1 BOUNDARY CONDITION TYPE YSYMM MAY NOT BE APPLIED AT THIS 
             NODE

 ***WARNING: DEGREE OF FREEDOM 2 HAS BEEN ELIMINATED AT NODE 37 INSTANCE 
             LAYER3-1 BOUNDARY CONDITION TYPE YSYMM MAY NOT BE APPLIED AT THIS 
             NODE

 ***WARNING: DEGREE OF FREEDOM 4 HAS BEEN ELIMINATED AT NODE 37 INSTANCE 
             LAYER3-1 BOUNDARY CONDITION TYPE YSYMM MAY NOT BE APPLIED AT THIS 
             NODE

 ***WARNING: DEGREE OF FREEDOM 6 HAS BEEN ELIMINATED AT NODE 37 INSTANCE 
             LAYER3-1 BOUNDARY CONDITION TYPE YSYMM MAY NOT BE APPLIED AT THIS 
             NODE

 ***WARNING: DEGREE OF FREEDOM 2 HAS BEEN ELIMINATED AT NODE 38 INSTANCE 
             LAYER3-1 BOUNDARY CONDITION TYPE YSYMM MAY NOT BE APPLIED AT THIS 
             NODE

 ***WARNING: DEGREE OF FREEDOM 4 HAS BEEN ELIMINATED AT NODE 38 INSTANCE 
             LAYER3-1 BOUNDARY CONDITION TYPE YSYMM MAY NOT BE APPLIED AT THIS 
             NODE

 ***WARNING: DEGREE OF FREEDOM 6 HAS BEEN ELIMINATED AT NODE 38 INSTANCE 
             LAYER3-1 BOUNDARY CONDITION TYPE YSYMM MAY NOT BE APPLIED AT THIS 
             NODE

 ***WARNING: DEGREE OF FREEDOM 2 HAS BEEN ELIMINATED AT NODE 39 INSTANCE 
             LAYER3-1 BOUNDARY CONDITION TYPE YSYMM MAY NOT BE APPLIED AT THIS 
             NODE

 ***WARNING: DEGREE OF FREEDOM 4 HAS BEEN ELIMINATED AT NODE 39 INSTANCE 
             LAYER3-1 BOUNDARY CONDITION TYPE YSYMM MAY NOT BE APPLIED AT THIS 
             NODE

 ***WARNING: DEGREE OF FREEDOM 6 HAS BEEN ELIMINATED AT NODE 39 INSTANCE 
             LAYER3-1 BOUNDARY CONDITION TYPE YSYMM MAY NOT BE APPLIED AT THIS 
             NODE

 ***WARNING: DEGREE OF FREEDOM 2 HAS BEEN ELIMINATED AT NODE 40 INSTANCE 
             LAYER3-1 BOUNDARY CONDITION TYPE YSYMM MAY NOT BE APPLIED AT THIS 
             NODE

 ***WARNING: DEGREE OF FREEDOM 4 HAS BEEN ELIMINATED AT NODE 40 INSTANCE 
             LAYER3-1 BOUNDARY CONDITION TYPE YSYMM MAY NOT BE APPLIED AT THIS 
             NODE

 ***WARNING: DEGREE OF FREEDOM 6 HAS BEEN ELIMINATED AT NODE 40 INSTANCE 
             LAYER3-1 BOUNDARY CONDITION TYPE YSYMM MAY NOT BE APPLIED AT THIS 
             NODE

 ***WARNING: DEGREE OF FREEDOM 2 HAS BEEN ELIMINATED AT NODE 41 INSTANCE 
             LAYER3-1 BOUNDARY CONDITION TYPE YSYMM MAY NOT BE APPLIED AT THIS 
             NODE

 ***WARNING: DEGREE OF FREEDOM 4 HAS BEEN ELIMINATED AT NODE 41 INSTANCE 
             LAYER3-1 BOUNDARY CONDITION TYPE YSYMM MAY NOT BE APPLIED AT THIS 
             NODE

 ***WARNING: DEGREE OF FREEDOM 6 HAS BEEN ELIMINATED AT NODE 41 INSTANCE 
             LAYER3-1 BOUNDARY CONDITION TYPE YSYMM MAY NOT BE APPLIED AT THIS 
             NODE

 ***WARNING: DEGREE OF FREEDOM 2 HAS BEEN ELIMINATED AT NODE 42 INSTANCE 
             LAYER3-1 BOUNDARY CONDITION TYPE YSYMM MAY NOT BE APPLIED AT THIS 
             NODE

 ***WARNING: DEGREE OF FREEDOM 4 HAS BEEN ELIMINATED AT NODE 42 INSTANCE 
             LAYER3-1 BOUNDARY CONDITION TYPE YSYMM MAY NOT BE APPLIED AT THIS 
             NODE

 ***WARNING: DEGREE OF FREEDOM 6 HAS BEEN ELIMINATED AT NODE 42 INSTANCE 
             LAYER3-1 BOUNDARY CONDITION TYPE YSYMM MAY NOT BE APPLIED AT THIS 
             NODE

 ***WARNING: DEGREE OF FREEDOM 1 HAS BEEN ELIMINATED AT NODE 79 INSTANCE 
             LAYER3-1 BOUNDARY CONDITION TYPE XSYMM MAY NOT BE APPLIED AT THIS 
             NODE

 ***WARNING: DEGREE OF FREEDOM 5 HAS BEEN ELIMINATED AT NODE 79 INSTANCE 
             LAYER3-1 BOUNDARY CONDITION TYPE XSYMM MAY NOT BE APPLIED AT THIS 
             NODE

 ***WARNING: DEGREE OF FREEDOM 6 HAS BEEN ELIMINATED AT NODE 79 INSTANCE 
             LAYER3-1 BOUNDARY CONDITION TYPE XSYMM MAY NOT BE APPLIED AT THIS 
             NODE

 ***WARNING: DEGREE OF FREEDOM 1 HAS BEEN ELIMINATED AT NODE 80 INSTANCE 
             LAYER3-1 BOUNDARY CONDITION TYPE XSYMM MAY NOT BE APPLIED AT THIS 
             NODE

 ***WARNING: DEGREE OF FREEDOM 5 HAS BEEN ELIMINATED AT NODE 80 INSTANCE 
             LAYER3-1 BOUNDARY CONDITION TYPE XSYMM MAY NOT BE APPLIED AT THIS 
             NODE

 ***WARNING: DEGREE OF FREEDOM 6 HAS BEEN ELIMINATED AT NODE 80 INSTANCE 
             LAYER3-1 BOUNDARY CONDITION TYPE XSYMM MAY NOT BE APPLIED AT THIS 
             NODE

 ***WARNING: DEGREE OF FREEDOM 1 HAS BEEN ELIMINATED AT NODE 81 INSTANCE 
             LAYER3-1 BOUNDARY CONDITION TYPE XSYMM MAY NOT BE APPLIED AT THIS 
             NODE

 ***WARNING: DEGREE OF FREEDOM 5 HAS BEEN ELIMINATED AT NODE 81 INSTANCE 
             LAYER3-1 BOUNDARY CONDITION TYPE XSYMM MAY NOT BE APPLIED AT THIS 
             NODE

 ***WARNING: DEGREE OF FREEDOM 6 HAS BEEN ELIMINATED AT NODE 81 INSTANCE 
             LAYER3-1 BOUNDARY CONDITION TYPE XSYMM MAY NOT BE APPLIED AT THIS 
             NODE

 ***WARNING: DEGREE OF FREEDOM 1 HAS BEEN ELIMINATED AT NODE 82 INSTANCE 
             LAYER3-1 BOUNDARY CONDITION TYPE XSYMM MAY NOT BE APPLIED AT THIS 
             NODE

 ***WARNING: DEGREE OF FREEDOM 5 HAS BEEN ELIMINATED AT NODE 82 INSTANCE 
             LAYER3-1 BOUNDARY CONDITION TYPE XSYMM MAY NOT BE APPLIED AT THIS 
             NODE

 ***WARNING: DEGREE OF FREEDOM 6 HAS BEEN ELIMINATED AT NODE 82 INSTANCE 
             LAYER3-1 BOUNDARY CONDITION TYPE XSYMM MAY NOT BE APPLIED AT THIS 
             NODE

 ***WARNING: DEGREE OF FREEDOM 1 HAS BEEN ELIMINATED AT NODE 83 INSTANCE 
             LAYER3-1 BOUNDARY CONDITION TYPE XSYMM MAY NOT BE APPLIED AT THIS 
             NODE

 ***WARNING: DEGREE OF FREEDOM 5 HAS BEEN ELIMINATED AT NODE 83 INSTANCE 
             LAYER3-1 BOUNDARY CONDITION TYPE XSYMM MAY NOT BE APPLIED AT THIS 
             NODE

 ***WARNING: DEGREE OF FREEDOM 6 HAS BEEN ELIMINATED AT NODE 83 INSTANCE 
             LAYER3-1 BOUNDARY CONDITION TYPE XSYMM MAY NOT BE APPLIED AT THIS 
             NODE

 ***WARNING: DEGREE OF FREEDOM 1 HAS BEEN ELIMINATED AT NODE 84 INSTANCE 
             LAYER3-1 BOUNDARY CONDITION TYPE XSYMM MAY NOT BE APPLIED AT THIS 
             NODE

 ***WARNING: DEGREE OF FREEDOM 5 HAS BEEN ELIMINATED AT NODE 84 INSTANCE 
             LAYER3-1 BOUNDARY CONDITION TYPE XSYMM MAY NOT BE APPLIED AT THIS 
             NODE

 ***WARNING: DEGREE OF FREEDOM 6 HAS BEEN ELIMINATED AT NODE 84 INSTANCE 
             LAYER3-1 BOUNDARY CONDITION TYPE XSYMM MAY NOT BE APPLIED AT THIS 
             NODE

 ***WARNING: DEGREE OF FREEDOM 1 HAS BEEN ELIMINATED AT NODE 85 INSTANCE 
             LAYER3-1 BOUNDARY CONDITION TYPE XSYMM MAY NOT BE APPLIED AT THIS 
             NODE

 ***WARNING: DEGREE OF FREEDOM 5 HAS BEEN ELIMINATED AT NODE 85 INSTANCE 
             LAYER3-1 BOUNDARY CONDITION TYPE XSYMM MAY NOT BE APPLIED AT THIS 
             NODE

 ***WARNING: DEGREE OF FREEDOM 6 HAS BEEN ELIMINATED AT NODE 85 INSTANCE 
             LAYER3-1 BOUNDARY CONDITION TYPE XSYMM MAY NOT BE APPLIED AT THIS 
             NODE

 ***WARNING: DEGREE OF FREEDOM 1 HAS BEEN ELIMINATED AT NODE 86 INSTANCE 
             LAYER3-1 BOUNDARY CONDITION TYPE XSYMM MAY NOT BE APPLIED AT THIS 
             NODE

 ***WARNING: DEGREE OF FREEDOM 5 HAS BEEN ELIMINATED AT NODE 86 INSTANCE 
             LAYER3-1 BOUNDARY CONDITION TYPE XSYMM MAY NOT BE APPLIED AT THIS 
             NODE

 ***WARNING: DEGREE OF FREEDOM 6 HAS BEEN ELIMINATED AT NODE 86 INSTANCE 
             LAYER3-1 BOUNDARY CONDITION TYPE XSYMM MAY NOT BE APPLIED AT THIS 
             NODE

 ***WARNING: DEGREE OF FREEDOM 1 HAS BEEN ELIMINATED AT NODE 87 INSTANCE 
             LAYER3-1 BOUNDARY CONDITION TYPE XSYMM MAY NOT BE APPLIED AT THIS 
             NODE

 ***WARNING: DEGREE OF FREEDOM 5 HAS BEEN ELIMINATED AT NODE 87 INSTANCE 
             LAYER3-1 BOUNDARY CONDITION TYPE XSYMM MAY NOT BE APPLIED AT THIS 
             NODE

 ***WARNING: DEGREE OF FREEDOM 6 HAS BEEN ELIMINATED AT NODE 87 INSTANCE 
             LAYER3-1 BOUNDARY CONDITION TYPE XSYMM MAY NOT BE APPLIED AT THIS 
             NODE

 ***WARNING: DEGREE OF FREEDOM 1 HAS BEEN ELIMINATED AT NODE 88 INSTANCE 
             LAYER3-1 BOUNDARY CONDITION TYPE XSYMM MAY NOT BE APPLIED AT THIS 
             NODE

 ***WARNING: DEGREE OF FREEDOM 5 HAS BEEN ELIMINATED AT NODE 88 INSTANCE 
             LAYER3-1 BOUNDARY CONDITION TYPE XSYMM MAY NOT BE APPLIED AT THIS 
             NODE

 ***WARNING: DEGREE OF FREEDOM 6 HAS BEEN ELIMINATED AT NODE 88 INSTANCE 
             LAYER3-1 BOUNDARY CONDITION TYPE XSYMM MAY NOT BE APPLIED AT THIS 
             NODE

 ***WARNING: DEGREE OF FREEDOM 1 HAS BEEN ELIMINATED AT NODE 89 INSTANCE 
             LAYER3-1 BOUNDARY CONDITION TYPE XSYMM MAY NOT BE APPLIED AT THIS 
             NODE

 ***WARNING: DEGREE OF FREEDOM 5 HAS BEEN ELIMINATED AT NODE 89 INSTANCE 
             LAYER3-1 BOUNDARY CONDITION TYPE XSYMM MAY NOT BE APPLIED AT THIS 
             NODE

 ***WARNING: DEGREE OF FREEDOM 6 HAS BEEN ELIMINATED AT NODE 89 INSTANCE 
             LAYER3-1 BOUNDARY CONDITION TYPE XSYMM MAY NOT BE APPLIED AT THIS 
             NODE

 ***WARNING: DEGREE OF FREEDOM 1 HAS BEEN ELIMINATED AT NODE 90 INSTANCE 
             LAYER3-1 BOUNDARY CONDITION TYPE XSYMM MAY NOT BE APPLIED AT THIS 
             NODE

 ***WARNING: DEGREE OF FREEDOM 5 HAS BEEN ELIMINATED AT NODE 90 INSTANCE 
             LAYER3-1 BOUNDARY CONDITION TYPE XSYMM MAY NOT BE APPLIED AT THIS 
             NODE

 ***WARNING: DEGREE OF FREEDOM 6 HAS BEEN ELIMINATED AT NODE 90 INSTANCE 
             LAYER3-1 BOUNDARY CONDITION TYPE XSYMM MAY NOT BE APPLIED AT THIS 
             NODE

 ***WARNING: DEGREE OF FREEDOM 1 HAS BEEN ELIMINATED AT NODE 91 INSTANCE 
             LAYER3-1 BOUNDARY CONDITION TYPE XSYMM MAY NOT BE APPLIED AT THIS 
             NODE

 ***WARNING: DEGREE OF FREEDOM 5 HAS BEEN ELIMINATED AT NODE 91 INSTANCE 
             LAYER3-1 BOUNDARY CONDITION TYPE XSYMM MAY NOT BE APPLIED AT THIS 
             NODE

 ***WARNING: DEGREE OF FREEDOM 6 HAS BEEN ELIMINATED AT NODE 91 INSTANCE 
             LAYER3-1 BOUNDARY CONDITION TYPE XSYMM MAY NOT BE APPLIED AT THIS 
             NODE

 ***WARNING: DEGREE OF FREEDOM 1 HAS BEEN ELIMINATED AT NODE 92 INSTANCE 
             LAYER3-1 BOUNDARY CONDITION TYPE XSYMM MAY NOT BE APPLIED AT THIS 
             NODE

 ***WARNING: DEGREE OF FREEDOM 5 HAS BEEN ELIMINATED AT NODE 92 INSTANCE 
             LAYER3-1 BOUNDARY CONDITION TYPE XSYMM MAY NOT BE APPLIED AT THIS 
             NODE

 ***WARNING: DEGREE OF FREEDOM 6 HAS BEEN ELIMINATED AT NODE 92 INSTANCE 
             LAYER3-1 BOUNDARY CONDITION TYPE XSYMM MAY NOT BE APPLIED AT THIS 
             NODE

 ***WARNING: DEGREE OF FREEDOM 1 HAS BEEN ELIMINATED AT NODE 93 INSTANCE 
             LAYER3-1 BOUNDARY CONDITION TYPE XSYMM MAY NOT BE APPLIED AT THIS 
             NODE

 ***WARNING: DEGREE OF FREEDOM 5 HAS BEEN ELIMINATED AT NODE 93 INSTANCE 
             LAYER3-1 BOUNDARY CONDITION TYPE XSYMM MAY NOT BE APPLIED AT THIS 
             NODE

 ***WARNING: DEGREE OF FREEDOM 6 HAS BEEN ELIMINATED AT NODE 93 INSTANCE 
             LAYER3-1 BOUNDARY CONDITION TYPE XSYMM MAY NOT BE APPLIED AT THIS 
             NODE

 ***WARNING: DEGREE OF FREEDOM 1 HAS BEEN ELIMINATED AT NODE 94 INSTANCE 
             LAYER3-1 BOUNDARY CONDITION TYPE XSYMM MAY NOT BE APPLIED AT THIS 
             NODE

 ***WARNING: DEGREE OF FREEDOM 5 HAS BEEN ELIMINATED AT NODE 94 INSTANCE 
             LAYER3-1 BOUNDARY CONDITION TYPE XSYMM MAY NOT BE APPLIED AT THIS 
             NODE

 ***WARNING: DEGREE OF FREEDOM 6 HAS BEEN ELIMINATED AT NODE 94 INSTANCE 
             LAYER3-1 BOUNDARY CONDITION TYPE XSYMM MAY NOT BE APPLIED AT THIS 
             NODE

 ***WARNING: DEGREE OF FREEDOM 1 HAS BEEN ELIMINATED AT NODE 95 INSTANCE 
             LAYER3-1 BOUNDARY CONDITION TYPE XSYMM MAY NOT BE APPLIED AT THIS 
             NODE

 ***WARNING: DEGREE OF FREEDOM 5 HAS BEEN ELIMINATED AT NODE 95 INSTANCE 
             LAYER3-1 BOUNDARY CONDITION TYPE XSYMM MAY NOT BE APPLIED AT THIS 
             NODE

 ***WARNING: DEGREE OF FREEDOM 6 HAS BEEN ELIMINATED AT NODE 95 INSTANCE 
             LAYER3-1 BOUNDARY CONDITION TYPE XSYMM MAY NOT BE APPLIED AT THIS 
             NODE

 ***WARNING: DEGREE OF FREEDOM 1 HAS BEEN ELIMINATED AT NODE 96 INSTANCE 
             LAYER3-1 BOUNDARY CONDITION TYPE XSYMM MAY NOT BE APPLIED AT THIS 
             NODE

 ***WARNING: DEGREE OF FREEDOM 5 HAS BEEN ELIMINATED AT NODE 96 INSTANCE 
             LAYER3-1 BOUNDARY CONDITION TYPE XSYMM MAY NOT BE APPLIED AT THIS 
             NODE

 ***WARNING: DEGREE OF FREEDOM 6 HAS BEEN ELIMINATED AT NODE 96 INSTANCE 
             LAYER3-1 BOUNDARY CONDITION TYPE XSYMM MAY NOT BE APPLIED AT THIS 
             NODE

 ***WARNING: DEGREE OF FREEDOM 1 HAS BEEN ELIMINATED AT NODE 97 INSTANCE 
             LAYER3-1 BOUNDARY CONDITION TYPE XSYMM MAY NOT BE APPLIED AT THIS 
             NODE

 ***WARNING: DEGREE OF FREEDOM 5 HAS BEEN ELIMINATED AT NODE 97 INSTANCE 
             LAYER3-1 BOUNDARY CONDITION TYPE XSYMM MAY NOT BE APPLIED AT THIS 
             NODE

 ***WARNING: DEGREE OF FREEDOM 6 HAS BEEN ELIMINATED AT NODE 97 INSTANCE 
             LAYER3-1 BOUNDARY CONDITION TYPE XSYMM MAY NOT BE APPLIED AT THIS 
             NODE

 ***WARNING: DEGREE OF FREEDOM 1 HAS BEEN ELIMINATED AT NODE 98 INSTANCE 
             LAYER3-1 BOUNDARY CONDITION TYPE XSYMM MAY NOT BE APPLIED AT THIS 
             NODE

 ***WARNING: DEGREE OF FREEDOM 5 HAS BEEN ELIMINATED AT NODE 98 INSTANCE 
             LAYER3-1 BOUNDARY CONDITION TYPE XSYMM MAY NOT BE APPLIED AT THIS 
             NODE

 ***WARNING: DEGREE OF FREEDOM 6 HAS BEEN ELIMINATED AT NODE 98 INSTANCE 
             LAYER3-1 BOUNDARY CONDITION TYPE XSYMM MAY NOT BE APPLIED AT THIS 
             NODE

 ***WARNING: DEGREE OF FREEDOM 1 HAS BEEN ELIMINATED AT NODE 99 INSTANCE 
             LAYER3-1 BOUNDARY CONDITION TYPE XSYMM MAY NOT BE APPLIED AT THIS 
             NODE

 ***WARNING: DEGREE OF FREEDOM 5 HAS BEEN ELIMINATED AT NODE 99 INSTANCE 
             LAYER3-1 BOUNDARY CONDITION TYPE XSYMM MAY NOT BE APPLIED AT THIS 
             NODE

 ***WARNING: DEGREE OF FREEDOM 6 HAS BEEN ELIMINATED AT NODE 99 INSTANCE 
             LAYER3-1 BOUNDARY CONDITION TYPE XSYMM MAY NOT BE APPLIED AT THIS 
             NODE

 ***WARNING: DEGREE OF FREEDOM 1 HAS BEEN ELIMINATED AT NODE 100 INSTANCE 
             LAYER3-1 BOUNDARY CONDITION TYPE XSYMM MAY NOT BE APPLIED AT THIS 
             NODE

 ***WARNING: DEGREE OF FREEDOM 5 HAS BEEN ELIMINATED AT NODE 100 INSTANCE 
             LAYER3-1 BOUNDARY CONDITION TYPE XSYMM MAY NOT BE APPLIED AT THIS 
             NODE

 ***WARNING: DEGREE OF FREEDOM 6 HAS BEEN ELIMINATED AT NODE 100 INSTANCE 
             LAYER3-1 BOUNDARY CONDITION TYPE XSYMM MAY NOT BE APPLIED AT THIS 
             NODE

 ***WARNING: DEGREE OF FREEDOM 1 HAS BEEN ELIMINATED AT NODE 101 INSTANCE 
             LAYER3-1 BOUNDARY CONDITION TYPE XSYMM MAY NOT BE APPLIED AT THIS 
             NODE

 ***WARNING: DEGREE OF FREEDOM 5 HAS BEEN ELIMINATED AT NODE 101 INSTANCE 
             LAYER3-1 BOUNDARY CONDITION TYPE XSYMM MAY NOT BE APPLIED AT THIS 
             NODE

 ***WARNING: DEGREE OF FREEDOM 6 HAS BEEN ELIMINATED AT NODE 101 INSTANCE 
             LAYER3-1 BOUNDARY CONDITION TYPE XSYMM MAY NOT BE APPLIED AT THIS 
             NODE

 ***WARNING: DEGREE OF FREEDOM 1 HAS BEEN ELIMINATED AT NODE 102 INSTANCE 
             LAYER3-1 BOUNDARY CONDITION TYPE XSYMM MAY NOT BE APPLIED AT THIS 
             NODE

 ***WARNING: DEGREE OF FREEDOM 5 HAS BEEN ELIMINATED AT NODE 102 INSTANCE 
             LAYER3-1 BOUNDARY CONDITION TYPE XSYMM MAY NOT BE APPLIED AT THIS 
             NODE

 ***WARNING: DEGREE OF FREEDOM 6 HAS BEEN ELIMINATED AT NODE 102 INSTANCE 
             LAYER3-1 BOUNDARY CONDITION TYPE XSYMM MAY NOT BE APPLIED AT THIS 
             NODE

 ***WARNING: DEGREE OF FREEDOM 1 HAS BEEN ELIMINATED AT NODE 103 INSTANCE 
             LAYER3-1 BOUNDARY CONDITION TYPE XSYMM MAY NOT BE APPLIED AT THIS 
             NODE

 ***WARNING: DEGREE OF FREEDOM 5 HAS BEEN ELIMINATED AT NODE 103 INSTANCE 
             LAYER3-1 BOUNDARY CONDITION TYPE XSYMM MAY NOT BE APPLIED AT THIS 
             NODE

 ***WARNING: DEGREE OF FREEDOM 6 HAS BEEN ELIMINATED AT NODE 103 INSTANCE 
             LAYER3-1 BOUNDARY CONDITION TYPE XSYMM MAY NOT BE APPLIED AT THIS 
             NODE

 ***WARNING: DEGREE OF FREEDOM 1 HAS BEEN ELIMINATED AT NODE 104 INSTANCE 
             LAYER3-1 BOUNDARY CONDITION TYPE XSYMM MAY NOT BE APPLIED AT THIS 
             NODE

 ***WARNING: DEGREE OF FREEDOM 5 HAS BEEN ELIMINATED AT NODE 104 INSTANCE 
             LAYER3-1 BOUNDARY CONDITION TYPE XSYMM MAY NOT BE APPLIED AT THIS 
             NODE

 ***WARNING: DEGREE OF FREEDOM 6 HAS BEEN ELIMINATED AT NODE 104 INSTANCE 
             LAYER3-1 BOUNDARY CONDITION TYPE XSYMM MAY NOT BE APPLIED AT THIS 
             NODE

 ***WARNING: DEGREE OF FREEDOM 1 HAS BEEN ELIMINATED AT NODE 105 INSTANCE 
             LAYER3-1 BOUNDARY CONDITION TYPE XSYMM MAY NOT BE APPLIED AT THIS 
             NODE

 ***WARNING: DEGREE OF FREEDOM 5 HAS BEEN ELIMINATED AT NODE 105 INSTANCE 
             LAYER3-1 BOUNDARY CONDITION TYPE XSYMM MAY NOT BE APPLIED AT THIS 
             NODE

 ***WARNING: DEGREE OF FREEDOM 6 HAS BEEN ELIMINATED AT NODE 105 INSTANCE 
             LAYER3-1 BOUNDARY CONDITION TYPE XSYMM MAY NOT BE APPLIED AT THIS 
             NODE

 ***WARNING: DEGREE OF FREEDOM 1 HAS BEEN ELIMINATED AT NODE 106 INSTANCE 
             LAYER3-1 BOUNDARY CONDITION TYPE XSYMM MAY NOT BE APPLIED AT THIS 
             NODE

 ***WARNING: DEGREE OF FREEDOM 5 HAS BEEN ELIMINATED AT NODE 106 INSTANCE 
             LAYER3-1 BOUNDARY CONDITION TYPE XSYMM MAY NOT BE APPLIED AT THIS 
             NODE

 ***WARNING: DEGREE OF FREEDOM 6 HAS BEEN ELIMINATED AT NODE 106 INSTANCE 
             LAYER3-1 BOUNDARY CONDITION TYPE XSYMM MAY NOT BE APPLIED AT THIS 
             NODE

 ***WARNING: DEGREE OF FREEDOM 1 HAS BEEN ELIMINATED AT NODE 107 INSTANCE 
             LAYER3-1 BOUNDARY CONDITION TYPE XSYMM MAY NOT BE APPLIED AT THIS 
             NODE

 ***WARNING: DEGREE OF FREEDOM 5 HAS BEEN ELIMINATED AT NODE 107 INSTANCE 
             LAYER3-1 BOUNDARY CONDITION TYPE XSYMM MAY NOT BE APPLIED AT THIS 
             NODE

 ***WARNING: DEGREE OF FREEDOM 6 HAS BEEN ELIMINATED AT NODE 107 INSTANCE 
             LAYER3-1 BOUNDARY CONDITION TYPE XSYMM MAY NOT BE APPLIED AT THIS 
             NODE

 ***WARNING: DEGREE OF FREEDOM 2 HAS BEEN ELIMINATED AT NODE 1 INSTANCE 
             LAYER4-1 BOUNDARY CONDITION TYPE YSYMM MAY NOT BE APPLIED AT THIS 
             NODE

 ***WARNING: DEGREE OF FREEDOM 4 HAS BEEN ELIMINATED AT NODE 1 INSTANCE 
             LAYER4-1 BOUNDARY CONDITION TYPE YSYMM MAY NOT BE APPLIED AT THIS 
             NODE

 ***WARNING: DEGREE OF FREEDOM 6 HAS BEEN ELIMINATED AT NODE 1 INSTANCE 
             LAYER4-1 BOUNDARY CONDITION TYPE YSYMM MAY NOT BE APPLIED AT THIS 
             NODE

 ***WARNING: DEGREE OF FREEDOM 1 HAS BEEN ELIMINATED AT NODE 2 INSTANCE 
             LAYER4-1 BOUNDARY CONDITION TYPE XSYMM MAY NOT BE APPLIED AT THIS 
             NODE

 ***WARNING: DEGREE OF FREEDOM 5 HAS BEEN ELIMINATED AT NODE 2 INSTANCE 
             LAYER4-1 BOUNDARY CONDITION TYPE XSYMM MAY NOT BE APPLIED AT THIS 
             NODE

 ***WARNING: DEGREE OF FREEDOM 6 HAS BEEN ELIMINATED AT NODE 2 INSTANCE 
             LAYER4-1 BOUNDARY CONDITION TYPE XSYMM MAY NOT BE APPLIED AT THIS 
             NODE

 ***WARNING: DEGREE OF FREEDOM 2 HAS BEEN ELIMINATED AT NODE 2 INSTANCE 
             LAYER4-1 BOUNDARY CONDITION TYPE YSYMM MAY NOT BE APPLIED AT THIS 
             NODE

 ***WARNING: DEGREE OF FREEDOM 4 HAS BEEN ELIMINATED AT NODE 2 INSTANCE 
             LAYER4-1 BOUNDARY CONDITION TYPE YSYMM MAY NOT BE APPLIED AT THIS 
             NODE

 ***WARNING: DEGREE OF FREEDOM 6 HAS BEEN ELIMINATED AT NODE 2 INSTANCE 
             LAYER4-1 BOUNDARY CONDITION TYPE YSYMM MAY NOT BE APPLIED AT THIS 
             NODE

 ***WARNING: DEGREE OF FREEDOM 1 HAS BEEN ELIMINATED AT NODE 13 INSTANCE 
             LAYER4-1 BOUNDARY CONDITION TYPE XSYMM MAY NOT BE APPLIED AT THIS 
             NODE

 ***WARNING: DEGREE OF FREEDOM 5 HAS BEEN ELIMINATED AT NODE 13 INSTANCE 
             LAYER4-1 BOUNDARY CONDITION TYPE XSYMM MAY NOT BE APPLIED AT THIS 
             NODE

 ***WARNING: DEGREE OF FREEDOM 6 HAS BEEN ELIMINATED AT NODE 13 INSTANCE 
             LAYER4-1 BOUNDARY CONDITION TYPE XSYMM MAY NOT BE APPLIED AT THIS 
             NODE

 ***WARNING: DEGREE OF FREEDOM 2 HAS BEEN ELIMINATED AT NODE 14 INSTANCE 
             LAYER4-1 BOUNDARY CONDITION TYPE YSYMM MAY NOT BE APPLIED AT THIS 
             NODE

 ***WARNING: DEGREE OF FREEDOM 4 HAS BEEN ELIMINATED AT NODE 14 INSTANCE 
             LAYER4-1 BOUNDARY CONDITION TYPE YSYMM MAY NOT BE APPLIED AT THIS 
             NODE

 ***WARNING: DEGREE OF FREEDOM 6 HAS BEEN ELIMINATED AT NODE 14 INSTANCE 
             LAYER4-1 BOUNDARY CONDITION TYPE YSYMM MAY NOT BE APPLIED AT THIS 
             NODE

 ***WARNING: DEGREE OF FREEDOM 2 HAS BEEN ELIMINATED AT NODE 15 INSTANCE 
             LAYER4-1 BOUNDARY CONDITION TYPE YSYMM MAY NOT BE APPLIED AT THIS 
             NODE

 ***WARNING: DEGREE OF FREEDOM 4 HAS BEEN ELIMINATED AT NODE 15 INSTANCE 
             LAYER4-1 BOUNDARY CONDITION TYPE YSYMM MAY NOT BE APPLIED AT THIS 
             NODE

 ***WARNING: DEGREE OF FREEDOM 6 HAS BEEN ELIMINATED AT NODE 15 INSTANCE 
             LAYER4-1 BOUNDARY CONDITION TYPE YSYMM MAY NOT BE APPLIED AT THIS 
             NODE

 ***WARNING: DEGREE OF FREEDOM 2 HAS BEEN ELIMINATED AT NODE 16 INSTANCE 
             LAYER4-1 BOUNDARY CONDITION TYPE YSYMM MAY NOT BE APPLIED AT THIS 
             NODE

 ***WARNING: DEGREE OF FREEDOM 4 HAS BEEN ELIMINATED AT NODE 16 INSTANCE 
             LAYER4-1 BOUNDARY CONDITION TYPE YSYMM MAY NOT BE APPLIED AT THIS 
             NODE

 ***WARNING: DEGREE OF FREEDOM 6 HAS BEEN ELIMINATED AT NODE 16 INSTANCE 
             LAYER4-1 BOUNDARY CONDITION TYPE YSYMM MAY NOT BE APPLIED AT THIS 
             NODE

 ***WARNING: DEGREE OF FREEDOM 2 HAS BEEN ELIMINATED AT NODE 17 INSTANCE 
             LAYER4-1 BOUNDARY CONDITION TYPE YSYMM MAY NOT BE APPLIED AT THIS 
             NODE

 ***WARNING: DEGREE OF FREEDOM 4 HAS BEEN ELIMINATED AT NODE 17 INSTANCE 
             LAYER4-1 BOUNDARY CONDITION TYPE YSYMM MAY NOT BE APPLIED AT THIS 
             NODE

[...]
             LAYER4-1 BOUNDARY CONDITION TYPE XSYMM MAY NOT BE APPLIED AT THIS 
             NODE

 ***WARNING: DEGREE OF FREEDOM 1 HAS BEEN ELIMINATED AT NODE 88 INSTANCE 
             LAYER4-1 BOUNDARY CONDITION TYPE XSYMM MAY NOT BE APPLIED AT THIS 
             NODE

 ***WARNING: DEGREE OF FREEDOM 5 HAS BEEN ELIMINATED AT NODE 88 INSTANCE 
             LAYER4-1 BOUNDARY CONDITION TYPE XSYMM MAY NOT BE APPLIED AT THIS 
             NODE

 ***WARNING: DEGREE OF FREEDOM 6 HAS BEEN ELIMINATED AT NODE 88 INSTANCE 
             LAYER4-1 BOUNDARY CONDITION TYPE XSYMM MAY NOT BE APPLIED AT THIS 
             NODE

 ***WARNING: DEGREE OF FREEDOM 1 HAS BEEN ELIMINATED AT NODE 89 INSTANCE 
             LAYER4-1 BOUNDARY CONDITION TYPE XSYMM MAY NOT BE APPLIED AT THIS 
             NODE

 ***WARNING: DEGREE OF FREEDOM 5 HAS BEEN ELIMINATED AT NODE 89 INSTANCE 
             LAYER4-1 BOUNDARY CONDITION TYPE XSYMM MAY NOT BE APPLIED AT THIS 
             NODE

 ***WARNING: DEGREE OF FREEDOM 6 HAS BEEN ELIMINATED AT NODE 89 INSTANCE 
             LAYER4-1 BOUNDARY CONDITION TYPE XSYMM MAY NOT BE APPLIED AT THIS 
             NODE

 ***WARNING: DEGREE OF FREEDOM 1 HAS BEEN ELIMINATED AT NODE 90 INSTANCE 
             LAYER4-1 BOUNDARY CONDITION TYPE XSYMM MAY NOT BE APPLIED AT THIS 
             NODE

 ***WARNING: DEGREE OF FREEDOM 5 HAS BEEN ELIMINATED AT NODE 90 INSTANCE 
             LAYER4-1 BOUNDARY CONDITION TYPE XSYMM MAY NOT BE APPLIED AT THIS 
             NODE

 ***WARNING: DEGREE OF FREEDOM 6 HAS BEEN ELIMINATED AT NODE 90 INSTANCE 
             LAYER4-1 BOUNDARY CONDITION TYPE XSYMM MAY NOT BE APPLIED AT THIS 
             NODE

 ***WARNING: DEGREE OF FREEDOM 1 HAS BEEN ELIMINATED AT NODE 91 INSTANCE 
             LAYER4-1 BOUNDARY CONDITION TYPE XSYMM MAY NOT BE APPLIED AT THIS 
             NODE

 ***WARNING: DEGREE OF FREEDOM 5 HAS BEEN ELIMINATED AT NODE 91 INSTANCE 
             LAYER4-1 BOUNDARY CONDITION TYPE XSYMM MAY NOT BE APPLIED AT THIS 
             NODE

 ***WARNING: DEGREE OF FREEDOM 6 HAS BEEN ELIMINATED AT NODE 91 INSTANCE 
             LAYER4-1 BOUNDARY CONDITION TYPE XSYMM MAY NOT BE APPLIED AT THIS 
             NODE

 ***WARNING: DEGREE OF FREEDOM 1 HAS BEEN ELIMINATED AT NODE 92 INSTANCE 
             LAYER4-1 BOUNDARY CONDITION TYPE XSYMM MAY NOT BE APPLIED AT THIS 
             NODE

 ***WARNING: DEGREE OF FREEDOM 5 HAS BEEN ELIMINATED AT NODE 92 INSTANCE 
             LAYER4-1 BOUNDARY CONDITION TYPE XSYMM MAY NOT BE APPLIED AT THIS 
             NODE

 ***WARNING: DEGREE OF FREEDOM 6 HAS BEEN ELIMINATED AT NODE 92 INSTANCE 
             LAYER4-1 BOUNDARY CONDITION TYPE XSYMM MAY NOT BE APPLIED AT THIS 
             NODE

 ***WARNING: DEGREE OF FREEDOM 1 HAS BEEN ELIMINATED AT NODE 93 INSTANCE 
             LAYER4-1 BOUNDARY CONDITION TYPE XSYMM MAY NOT BE APPLIED AT THIS 
             NODE

 ***WARNING: DEGREE OF FREEDOM 5 HAS BEEN ELIMINATED AT NODE 93 INSTANCE 
             LAYER4-1 BOUNDARY CONDITION TYPE XSYMM MAY NOT BE APPLIED AT THIS 
             NODE

 ***WARNING: DEGREE OF FREEDOM 6 HAS BEEN ELIMINATED AT NODE 93 INSTANCE 
             LAYER4-1 BOUNDARY CONDITION TYPE XSYMM MAY NOT BE APPLIED AT THIS 
             NODE

 ***WARNING: DEGREE OF FREEDOM 1 HAS BEEN ELIMINATED AT NODE 94 INSTANCE 
             LAYER4-1 BOUNDARY CONDITION TYPE XSYMM MAY NOT BE APPLIED AT THIS 
             NODE

 ***WARNING: DEGREE OF FREEDOM 5 HAS BEEN ELIMINATED AT NODE 94 INSTANCE 
             LAYER4-1 BOUNDARY CONDITION TYPE XSYMM MAY NOT BE APPLIED AT THIS 
             NODE

 ***WARNING: DEGREE OF FREEDOM 6 HAS BEEN ELIMINATED AT NODE 94 INSTANCE 
             LAYER4-1 BOUNDARY CONDITION TYPE XSYMM MAY NOT BE APPLIED AT THIS 
             NODE

 ***WARNING: DEGREE OF FREEDOM 1 HAS BEEN ELIMINATED AT NODE 95 INSTANCE 
             LAYER4-1 BOUNDARY CONDITION TYPE XSYMM MAY NOT BE APPLIED AT THIS 
             NODE

 ***WARNING: DEGREE OF FREEDOM 5 HAS BEEN ELIMINATED AT NODE 95 INSTANCE 
             LAYER4-1 BOUNDARY CONDITION TYPE XSYMM MAY NOT BE APPLIED AT THIS 
             NODE

 ***WARNING: DEGREE OF FREEDOM 6 HAS BEEN ELIMINATED AT NODE 95 INSTANCE 
             LAYER4-1 BOUNDARY CONDITION TYPE XSYMM MAY NOT BE APPLIED AT THIS 
             NODE

 ***WARNING: DEGREE OF FREEDOM 1 HAS BEEN ELIMINATED AT NODE 96 INSTANCE 
             LAYER4-1 BOUNDARY CONDITION TYPE XSYMM MAY NOT BE APPLIED AT THIS 
             NODE

 ***WARNING: DEGREE OF FREEDOM 5 HAS BEEN ELIMINATED AT NODE 96 INSTANCE 
             LAYER4-1 BOUNDARY CONDITION TYPE XSYMM MAY NOT BE APPLIED AT THIS 
             NODE

 ***WARNING: DEGREE OF FREEDOM 6 HAS BEEN ELIMINATED AT NODE 96 INSTANCE 
             LAYER4-1 BOUNDARY CONDITION TYPE XSYMM MAY NOT BE APPLIED AT THIS 
             NODE

 ***WARNING: DEGREE OF FREEDOM 1 HAS BEEN ELIMINATED AT NODE 97 INSTANCE 
             LAYER4-1 BOUNDARY CONDITION TYPE XSYMM MAY NOT BE APPLIED AT THIS 
             NODE

 ***WARNING: DEGREE OF FREEDOM 5 HAS BEEN ELIMINATED AT NODE 97 INSTANCE 
             LAYER4-1 BOUNDARY CONDITION TYPE XSYMM MAY NOT BE APPLIED AT THIS 
             NODE

 ***WARNING: DEGREE OF FREEDOM 6 HAS BEEN ELIMINATED AT NODE 97 INSTANCE 
             LAYER4-1 BOUNDARY CONDITION TYPE XSYMM MAY NOT BE APPLIED AT THIS 
             NODE

 ***WARNING: DEGREE OF FREEDOM 1 HAS BEEN ELIMINATED AT NODE 98 INSTANCE 
             LAYER4-1 BOUNDARY CONDITION TYPE XSYMM MAY NOT BE APPLIED AT THIS 
             NODE

 ***WARNING: DEGREE OF FREEDOM 5 HAS BEEN ELIMINATED AT NODE 98 INSTANCE 
             LAYER4-1 BOUNDARY CONDITION TYPE XSYMM MAY NOT BE APPLIED AT THIS 
             NODE

 ***WARNING: DEGREE OF FREEDOM 6 HAS BEEN ELIMINATED AT NODE 98 INSTANCE 
             LAYER4-1 BOUNDARY CONDITION TYPE XSYMM MAY NOT BE APPLIED AT THIS 
             NODE

 ***WARNING: DEGREE OF FREEDOM 1 HAS BEEN ELIMINATED AT NODE 99 INSTANCE 
             LAYER4-1 BOUNDARY CONDITION TYPE XSYMM MAY NOT BE APPLIED AT THIS 
             NODE

 ***WARNING: DEGREE OF FREEDOM 5 HAS BEEN ELIMINATED AT NODE 99 INSTANCE 
             LAYER4-1 BOUNDARY CONDITION TYPE XSYMM MAY NOT BE APPLIED AT THIS 
             NODE

 ***WARNING: DEGREE OF FREEDOM 6 HAS BEEN ELIMINATED AT NODE 99 INSTANCE 
             LAYER4-1 BOUNDARY CONDITION TYPE XSYMM MAY NOT BE APPLIED AT THIS 
             NODE

 ***WARNING: DEGREE OF FREEDOM 1 HAS BEEN ELIMINATED AT NODE 100 INSTANCE 
             LAYER4-1 BOUNDARY CONDITION TYPE XSYMM MAY NOT BE APPLIED AT THIS 
             NODE

 ***WARNING: DEGREE OF FREEDOM 5 HAS BEEN ELIMINATED AT NODE 100 INSTANCE 
             LAYER4-1 BOUNDARY CONDITION TYPE XSYMM MAY NOT BE APPLIED AT THIS 
             NODE

 ***WARNING: DEGREE OF FREEDOM 6 HAS BEEN ELIMINATED AT NODE 100 INSTANCE 
             LAYER4-1 BOUNDARY CONDITION TYPE XSYMM MAY NOT BE APPLIED AT THIS 
             NODE

 ***WARNING: DEGREE OF FREEDOM 1 HAS BEEN ELIMINATED AT NODE 101 INSTANCE 
             LAYER4-1 BOUNDARY CONDITION TYPE XSYMM MAY NOT BE APPLIED AT THIS 
             NODE

 ***WARNING: DEGREE OF FREEDOM 5 HAS BEEN ELIMINATED AT NODE 101 INSTANCE 
             LAYER4-1 BOUNDARY CONDITION TYPE XSYMM MAY NOT BE APPLIED AT THIS 
             NODE

 ***WARNING: DEGREE OF FREEDOM 6 HAS BEEN ELIMINATED AT NODE 101 INSTANCE 
             LAYER4-1 BOUNDARY CONDITION TYPE XSYMM MAY NOT BE APPLIED AT THIS 
             NODE

 ***WARNING: DEGREE OF FREEDOM 1 HAS BEEN ELIMINATED AT NODE 102 INSTANCE 
             LAYER4-1 BOUNDARY CONDITION TYPE XSYMM MAY NOT BE APPLIED AT THIS 
             NODE

 ***WARNING: DEGREE OF FREEDOM 5 HAS BEEN ELIMINATED AT NODE 102 INSTANCE 
             LAYER4-1 BOUNDARY CONDITION TYPE XSYMM MAY NOT BE APPLIED AT THIS 
             NODE

 ***WARNING: DEGREE OF FREEDOM 6 HAS BEEN ELIMINATED AT NODE 102 INSTANCE 
             LAYER4-1 BOUNDARY CONDITION TYPE XSYMM MAY NOT BE APPLIED AT THIS 
             NODE

 ***WARNING: DEGREE OF FREEDOM 1 HAS BEEN ELIMINATED AT NODE 103 INSTANCE 
             LAYER4-1 BOUNDARY CONDITION TYPE XSYMM MAY NOT BE APPLIED AT THIS 
             NODE

 ***WARNING: DEGREE OF FREEDOM 5 HAS BEEN ELIMINATED AT NODE 103 INSTANCE 
             LAYER4-1 BOUNDARY CONDITION TYPE XSYMM MAY NOT BE APPLIED AT THIS 
             NODE

 ***WARNING: DEGREE OF FREEDOM 6 HAS BEEN ELIMINATED AT NODE 103 INSTANCE 
             LAYER4-1 BOUNDARY CONDITION TYPE XSYMM MAY NOT BE APPLIED AT THIS 
             NODE

 ***WARNING: DEGREE OF FREEDOM 1 HAS BEEN ELIMINATED AT NODE 104 INSTANCE 
             LAYER4-1 BOUNDARY CONDITION TYPE XSYMM MAY NOT BE APPLIED AT THIS 
             NODE

 ***WARNING: DEGREE OF FREEDOM 5 HAS BEEN ELIMINATED AT NODE 104 INSTANCE 
             LAYER4-1 BOUNDARY CONDITION TYPE XSYMM MAY NOT BE APPLIED AT THIS 
             NODE

 ***WARNING: DEGREE OF FREEDOM 6 HAS BEEN ELIMINATED AT NODE 104 INSTANCE 
             LAYER4-1 BOUNDARY CONDITION TYPE XSYMM MAY NOT BE APPLIED AT THIS 
             NODE

 ***WARNING: DEGREE OF FREEDOM 1 HAS BEEN ELIMINATED AT NODE 105 INSTANCE 
             LAYER4-1 BOUNDARY CONDITION TYPE XSYMM MAY NOT BE APPLIED AT THIS 
             NODE

 ***WARNING: DEGREE OF FREEDOM 5 HAS BEEN ELIMINATED AT NODE 105 INSTANCE 
             LAYER4-1 BOUNDARY CONDITION TYPE XSYMM MAY NOT BE APPLIED AT THIS 
             NODE

 ***WARNING: DEGREE OF FREEDOM 6 HAS BEEN ELIMINATED AT NODE 105 INSTANCE 
             LAYER4-1 BOUNDARY CONDITION TYPE XSYMM MAY NOT BE APPLIED AT THIS 
             NODE

 ***WARNING: DEGREE OF FREEDOM 1 HAS BEEN ELIMINATED AT NODE 106 INSTANCE 
             LAYER4-1 BOUNDARY CONDITION TYPE XSYMM MAY NOT BE APPLIED AT THIS 
             NODE

 ***WARNING: DEGREE OF FREEDOM 5 HAS BEEN ELIMINATED AT NODE 106 INSTANCE 
             LAYER4-1 BOUNDARY CONDITION TYPE XSYMM MAY NOT BE APPLIED AT THIS 
             NODE

 ***WARNING: DEGREE OF FREEDOM 6 HAS BEEN ELIMINATED AT NODE 106 INSTANCE 
             LAYER4-1 BOUNDARY CONDITION TYPE XSYMM MAY NOT BE APPLIED AT THIS 
             NODE

 ***WARNING: DEGREE OF FREEDOM 1 HAS BEEN ELIMINATED AT NODE 107 INSTANCE 
             LAYER4-1 BOUNDARY CONDITION TYPE XSYMM MAY NOT BE APPLIED AT THIS 
             NODE

 ***WARNING: DEGREE OF FREEDOM 5 HAS BEEN ELIMINATED AT NODE 107 INSTANCE 
             LAYER4-1 BOUNDARY CONDITION TYPE XSYMM MAY NOT BE APPLIED AT THIS 
             NODE

 ***WARNING: DEGREE OF FREEDOM 6 HAS BEEN ELIMINATED AT NODE 107 INSTANCE 
             LAYER4-1 BOUNDARY CONDITION TYPE XSYMM MAY NOT BE APPLIED AT THIS 
             NODE

 ***WARNING: 183 nodes have dof on which incorrect boundary conditions may have 
             been specified. The nodes have been identified in node set 
             WarnNodeBCIncorrectDof.



                            P R O B L E M   S I Z E


          NUMBER OF ELEMENTS IS                                  3480
          NUMBER OF NODES IS                                     3680
          NUMBER OF NODES DEFINED BY THE USER                    3680
          TOTAL NUMBER OF VARIABLES IN THE MODEL                22080
          (DEGREES OF FREEDOM PLUS MAX NO. OF ANY LAGRANGE MULTIPLIER
           VARIABLES. INCLUDE *PRINT,SOLVE=YES TO GET THE ACTUAL NUMBER.)



                              END OF USER INPUT PROCESSING



     JOB TIME SUMMARY
       USER TIME (SEC)      =     0.70    
       SYSTEM TIME (SEC)    =     0.10    
       TOTAL CPU TIME (SEC) =     0.80    
       WALLCLOCK TIME (SEC) =            1
1

   Abaqus 2023                                  Date 20-9ÔÂ-2023   Time 16:41:49
   For use by Supplied by Team-SolidSQUAD under license from Dassault Systemes or its subsidiary.

                                                                                               STEP    1  INCREMENT    1
                                                                                          TIME COMPLETED IN THIS STEP   0.00    


                        S T E P       1     S T A T I C   A N A L Y S I S


                                                                                          

     AUTOMATIC TIME CONTROL WITH -
          A SUGGESTED INITIAL TIME INCREMENT OF                1.000E-02
          AND A TOTAL TIME PERIOD OF                           0.100    
          THE MINIMUM TIME INCREMENT ALLOWED IS                1.000E-06
          THE MAXIMUM TIME INCREMENT ALLOWED IS                0.100    

     LINEAR EQUATION SOLVER TYPE         DIRECT SPARSE

          LARGE DISPLACEMENT THEORY WILL BE USED
  
                   M E M O R Y   E S T I M A T E
  
 PROCESS      FLOATING PT       MINIMUM MEMORY        MEMORY TO
              OPERATIONS           REQUIRED          MINIMIZE I/O
             PER ITERATION           (MB)               (MB)
  
     1          1.01E+08               25                 49
  
 NOTE:
      (1) SINCE ABAQUS DOES NOT PRE-ALLOCATE MEMORY AND ONLY ALLOCATES MEMORY AS NEEDED DURING THE ANALYSIS,
          THE MEMORY REQUIREMENT PRINTED HERE CAN ONLY BE VIEWED AS A GENERAL GUIDELINE BASED ON THE BEST
          KNOWLEDGE AVAILABLE AT THE BEGINNING OF A STEP BEFORE THE SOLUTION PROCESS HAS BEGUN.
      (2) THE ESTIMATE IS NORMALLY UPDATED AT THE BEGINNING OF EVERY STEP. IT IS THE MAXIMUM VALUE OF THE
          ESTIMATE FROM THE CURRENT STEP TO THE LAST STEP OF THE ANALYSIS, WITH UNSYMMETRIC SOLUTION TAKEN
          INTO ACCOUNT IF APPLICABLE. 
      (3) SINCE THE ESTIMATE IS BASED ON THE ACTIVE DEGREES OF FREEDOM IN THE FIRST ITERATION OF THE 
          CURRENT STEP, THE MEMORY ESTIMATE MIGHT BE SIGNIFICANTLY DIFFERENT THAN ACTUAL USAGE FOR 
          PROBLEMS WITH SUBSTANTIAL CHANGES IN ACTIVE DEGREES OF FREEDOM BETWEEN STEPS (OR EVEN WITHIN
          THE SAME STEP). EXAMPLES ARE: PROBLEMS WITH SIGNIFICANT CONTACT CHANGES, PROBLEMS WITH MODEL
          CHANGE, PROBLEMS WITH BOTH STATIC STEP AND STEADY STATE DYNAMIC PROCEDURES WHERE ACOUSTIC 
          ELEMENTS WILL ONLY BE ACTIVATED IN THE STEADY STATE DYNAMIC STEPS.
      (4) FOR MULTI-PROCESS EXECUTION, THE ESTIMATED VALUE OF FLOATING POINT OPERATIONS FOR EACH PROCESS
          IS BASED ON AN INITIAL SCHEDULING OF OPERATIONS AND MIGHT NOT REFLECT THE ACTUAL FLOATING 
          POINT OPERATIONS COMPLETED ON EACH PROCESS. OPERATIONS ARE DYNAMICALLY BALANCED DURING EXECUTION, 
          SO THE ACTUAL BALANCE OF OPERATIONS BETWEEN PROCESSES IS EXPECTED TO BE BETTER THAN THE ESTIMATE
          PRINTED HERE.
      (5) THE UPPER LIMIT OF MEMORY THAT CAN BE ALLOCATED BY ABAQUS WILL IN GENERAL DEPEND ON THE VALUE OF
          THE "MEMORY" PARAMETER AND THE AMOUNT OF PHYSICAL MEMORY AVAILABLE ON THE MACHINE. PLEASE SEE
          THE "ABAQUS ANALYSIS USER'S MANUAL" FOR MORE DETAILS. THE ACTUAL USAGE OF MEMORY AND OF DISK
          SPACE FOR SCRATCH DATA WILL DEPEND ON THIS UPPER LIMIT AS WELL AS THE MEMORY REQUIRED TO MINIMIZE
          I/O. IF THE MEMORY UPPER LIMIT IS GREATER THAN THE MEMORY REQUIRED TO MINIMIZE I/O, THEN THE ACTUAL
          MEMORY USAGE WILL BE CLOSE TO THE ESTIMATED "MEMORY TO MINIMIZE I/O" VALUE, AND THE SCRATCH DISK
          USAGE WILL BE CLOSE-TO-ZERO; OTHERWISE, THE ACTUAL MEMORY USED WILL BE CLOSE TO THE PREVIOUSLY
          MENTIONED MEMORY LIMIT, AND THE SCRATCH DISK USAGE WILL BE ROUGHLY PROPORTIONAL TO THE DIFFERENCE
          BETWEEN THE ESTIMATED "MEMORY TO MINIMIZE I/O" AND THE MEMORY UPPER LIMIT. HOWEVER ACCURATE
          ESTIMATE OF THE SCRATCH DISK SPACE IS NOT POSSIBLE.
      (6) USING "*RESTART, WRITE" CAN GENERATE A LARGE AMOUNT OF DATA WRITTEN IN THE WORK DIRECTORY.
1

   Abaqus 2023                                  Date 20-9ÔÂ-2023   Time 16:41:53
   For use by Supplied by Team-SolidSQUAD under license from Dassault Systemes or its subsidiary.

                                                                                               STEP    2  INCREMENT    1
                                                                                          TIME COMPLETED IN THIS STEP   0.00    


                        S T E P       2     S T A T I C   A N A L Y S I S


                                                                                          

     AUTOMATIC TIME CONTROL WITH -
          A SUGGESTED INITIAL TIME INCREMENT OF                1.000E-02
          AND A TOTAL TIME PERIOD OF                            1.00    
          THE MINIMUM TIME INCREMENT ALLOWED IS                1.000E-06
          THE MAXIMUM TIME INCREMENT ALLOWED IS                 1.00    

     LINEAR EQUATION SOLVER TYPE         DIRECT SPARSE

          LARGE DISPLACEMENT THEORY WILL BE USED
  
                   M E M O R Y   E S T I M A T E
  
 PROCESS      FLOATING PT       MINIMUM MEMORY        MEMORY TO
              OPERATIONS           REQUIRED          MINIMIZE I/O
             PER ITERATION           (MB)               (MB)
  
     1          1.01E+08               24                 49
  
 NOTE:
      (1) SINCE ABAQUS DOES NOT PRE-ALLOCATE MEMORY AND ONLY ALLOCATES MEMORY AS NEEDED DURING THE ANALYSIS,
          THE MEMORY REQUIREMENT PRINTED HERE CAN ONLY BE VIEWED AS A GENERAL GUIDELINE BASED ON THE BEST
          KNOWLEDGE AVAILABLE AT THE BEGINNING OF A STEP BEFORE THE SOLUTION PROCESS HAS BEGUN.
      (2) THE ESTIMATE IS NORMALLY UPDATED AT THE BEGINNING OF EVERY STEP. IT IS THE MAXIMUM VALUE OF THE
          ESTIMATE FROM THE CURRENT STEP TO THE LAST STEP OF THE ANALYSIS, WITH UNSYMMETRIC SOLUTION TAKEN
          INTO ACCOUNT IF APPLICABLE. 
      (3) SINCE THE ESTIMATE IS BASED ON THE ACTIVE DEGREES OF FREEDOM IN THE FIRST ITERATION OF THE 
          CURRENT STEP, THE MEMORY ESTIMATE MIGHT BE SIGNIFICANTLY DIFFERENT THAN ACTUAL USAGE FOR 
          PROBLEMS WITH SUBSTANTIAL CHANGES IN ACTIVE DEGREES OF FREEDOM BETWEEN STEPS (OR EVEN WITHIN
          THE SAME STEP). EXAMPLES ARE: PROBLEMS WITH SIGNIFICANT CONTACT CHANGES, PROBLEMS WITH MODEL
          CHANGE, PROBLEMS WITH BOTH STATIC STEP AND STEADY STATE DYNAMIC PROCEDURES WHERE ACOUSTIC 
          ELEMENTS WILL ONLY BE ACTIVATED IN THE STEADY STATE DYNAMIC STEPS.
      (4) FOR MULTI-PROCESS EXECUTION, THE ESTIMATED VALUE OF FLOATING POINT OPERATIONS FOR EACH PROCESS
          IS BASED ON AN INITIAL SCHEDULING OF OPERATIONS AND MIGHT NOT REFLECT THE ACTUAL FLOATING 
          POINT OPERATIONS COMPLETED ON EACH PROCESS. OPERATIONS ARE DYNAMICALLY BALANCED DURING EXECUTION, 
          SO THE ACTUAL BALANCE OF OPERATIONS BETWEEN PROCESSES IS EXPECTED TO BE BETTER THAN THE ESTIMATE
          PRINTED HERE.
      (5) THE UPPER LIMIT OF MEMORY THAT CAN BE ALLOCATED BY ABAQUS WILL IN GENERAL DEPEND ON THE VALUE OF
          THE "MEMORY" PARAMETER AND THE AMOUNT OF PHYSICAL MEMORY AVAILABLE ON THE MACHINE. PLEASE SEE
          THE "ABAQUS ANALYSIS USER'S MANUAL" FOR MORE DETAILS. THE ACTUAL USAGE OF MEMORY AND OF DISK
          SPACE FOR SCRATCH DATA WILL DEPEND ON THIS UPPER LIMIT AS WELL AS THE MEMORY REQUIRED TO MINIMIZE
          I/O. IF THE MEMORY UPPER LIMIT IS GREATER THAN THE MEMORY REQUIRED TO MINIMIZE I/O, THEN THE ACTUAL
          MEMORY USAGE WILL BE CLOSE TO THE ESTIMATED "MEMORY TO MINIMIZE I/O" VALUE, AND THE SCRATCH DISK
          USAGE WILL BE CLOSE-TO-ZERO; OTHERWISE, THE ACTUAL MEMORY USED WILL BE CLOSE TO THE PREVIOUSLY
          MENTIONED MEMORY LIMIT, AND THE SCRATCH DISK USAGE WILL BE ROUGHLY PROPORTIONAL TO THE DIFFERENCE
          BETWEEN THE ESTIMATED "MEMORY TO MINIMIZE I/O" AND THE MEMORY UPPER LIMIT. HOWEVER ACCURATE
          ESTIMATE OF THE SCRATCH DISK SPACE IS NOT POSSIBLE.
      (6) USING "*RESTART, WRITE" CAN GENERATE A LARGE AMOUNT OF DATA WRITTEN IN THE WORK DIRECTORY.


          THE ANALYSIS HAS BEEN COMPLETED



                              ANALYSIS COMPLETE
                              WITH   1121 WARNING MESSAGES ON THE DAT FILE



     JOB TIME SUMMARY
       USER TIME (SEC)      =     5.82E+02
       SYSTEM TIME (SEC)    =      16.    
       TOTAL CPU TIME (SEC) =     5.98E+02
       WALLCLOCK TIME (SEC) =           25
