*Heading
** Job name: Cu-Ni-PI_Journal-2_9-20 Model name: Cu-Ni-PI_Journal-2
** Generated by: Abaqus/CAE 2023
*Preprint, echo=NO, model=NO, history=NO, contact=NO
**
** PARTS
**
*Part, name=Layer1
*End Part
**  
*Part, name=Layer2
*End Part
**  
*Part, name=Layer3
*End Part
**  
*Part, name=Layer4
*End Part
**  
**
** ASSEMBLY
**
*Assembly, name=Assembly
**  
*Instance, name=Layer1-1, part=Layer1
*Node
      1,         150.,           0.,  0.387500018
      2,           0.,           0.,  0.387500018
      3,   19.9930439,   148.661621,  0.387500018
      4,   44.4413376,   143.265381,  0.387500018
      5,    63.140213,   136.063644,  0.387500018
      6,   80.7123566,   126.433838,  0.387500018
      7,   96.8441772,   114.547829,  0.387500018
      8,   114.547829,   96.8441772,  0.387500018
      9,   126.433838,   80.7123566,  0.387500018
     10,   136.063644,    63.140213,  0.387500018
     11,   143.265381,   44.4413376,  0.387500018
     12,   148.661621,   19.9930439,  0.387500018
     13,           0.,         150.,  0.387500018
     14,         145.,           0.,  0.387500018
     15,         140.,           0.,  0.387500018
     16,         135.,           0.,  0.387500018
     17,         130.,           0.,  0.387500018
     18,         125.,           0.,  0.387500018
     19,         120.,           0.,  0.387500018
     20,         115.,           0.,  0.387500018
** ... 900 like lines cut
*Element, type=S3
 1, 602, 588, 516
 2, 824, 784, 782
 3, 919, 830, 918
 4, 858, 856, 843
 5, 840, 855, 838
 6, 855, 915, 839
 7, 883, 884, 876
 8, 915, 857, 842
 9, 796, 920, 797
*Element, type=S4R
 10, 285, 198, 326, 328
 11, 161, 168, 198, 285
 12,  24,  23, 113, 108
 13,  27,  26, 115, 109
 14,  60, 157, 189,  61
 15,  31,  30, 118, 110
 16, 167,  54,  53, 190
 17, 171, 181, 271, 199
 18,  38,  37, 124, 212
 19, 125, 200,  40,  39
 20,  42,  41, 201, 891
 21,  14,   1,  78, 169
 22, 176, 202, 273, 169
 23, 334, 273, 202, 541
 24,  12, 174, 166,  76
 25, 203, 204,  18,  17
 26,  20,  19, 205, 111
 27,  70, 165, 185,  71
 28, 111, 206,  21,  20
 29,  23,  22, 112, 113
** ... 841 like lines cut
*Nset, nset=_PickedSet4, internal, generate
   1,  920,    1
*Elset, elset=_PickedSet4, internal, generate
   1,  870,    1
** Section: Section-Layer-1
*Shell Section, elset=_PickedSet4, material=Si-Same
0.775, 5
*End Instance
**  
*Instance, name=Layer2-1, part=Layer2
          0.,           0.,        0.775
*Node
      1,         150.,           0., 0.00306745013
      2,           0.,           0., 0.00306745013
      3,   19.9930439,   148.661621, 0.00306745013
      4,   44.4413376,   143.265381, 0.00306745013
      5,    63.140213,   136.063644, 0.00306745013
      6,   80.7123566,   126.433838, 0.00306745013
      7,   96.8441772,   114.547829, 0.00306745013
      8,   114.547829,   96.8441772, 0.00306745013
      9,   126.433838,   80.7123566, 0.00306745013
     10,   136.063644,    63.140213, 0.00306745013
     11,   143.265381,   44.4413376, 0.00306745013
     12,   148.661621,   19.9930439, 0.00306745013
     13,           0.,         150., 0.00306745013
     14,         145.,           0., 0.00306745013
     15,         140.,           0., 0.00306745013
     16,         135.,           0., 0.00306745013
     17,         130.,           0., 0.00306745013
     18,         125.,           0., 0.00306745013
     19,         120.,           0., 0.00306745013
     20,         115.,           0., 0.00306745013
** ... 900 like lines cut
*Element, type=S3
 1, 602, 588, 516
 2, 824, 784, 782
 3, 919, 830, 918
 4, 858, 856, 843
 5, 840, 855, 838
 6, 855, 915, 839
 7, 883, 884, 876
 8, 915, 857, 842
 9, 796, 920, 797
*Element, type=S4R
 10, 285, 198, 326, 328
 11, 161, 168, 198, 285
 12,  24,  23, 113, 108
 13,  27,  26, 115, 109
 14,  60, 157, 189,  61
 15,  31,  30, 118, 110
 16, 167,  54,  53, 190
 17, 171, 181, 271, 199
 18,  38,  37, 124, 212
 19, 125, 200,  40,  39
 20,  42,  41, 201, 891
 21,  14,   1,  78, 169
 22, 176, 202, 273, 169
 23, 334, 273, 202, 541
 24,  12, 174, 166,  76
 25, 203, 204,  18,  17
 26,  20,  19, 205, 111
 27,  70, 165, 185,  71
 28, 111, 206,  21,  20
 29,  23,  22, 112, 113
** ... 841 like lines cut
*Nset, nset=_PickedSet4, internal, generate
   1,  920,    1
*Elset, elset=_PickedSet4, internal, generate
   1,  870,    1
** Section: Section-Layer-2
*Shell Section, elset=_PickedSet4, material=Ubump-top_Mix
0.0061349, 5
*End Instance
**  
*Instance, name=Layer3-1, part=Layer3
          0.,           0., 0.781134900346109
*Node
      1,         150.,           0., 0.0500000007
      2,           0.,           0., 0.0500000007
      3,   19.9930439,   148.661621, 0.0500000007
      4,   44.4413376,   143.265381, 0.0500000007
      5,    63.140213,   136.063644, 0.0500000007
      6,   80.7123566,   126.433838, 0.0500000007
      7,   96.8441772,   114.547829, 0.0500000007
      8,   114.547829,   96.8441772, 0.0500000007
      9,   126.433838,   80.7123566, 0.0500000007
     10,   136.063644,    63.140213, 0.0500000007
     11,   143.265381,   44.4413376, 0.0500000007
     12,   148.661621,   19.9930439, 0.0500000007
     13,           0.,         150., 0.0500000007
     14,         145.,           0., 0.0500000007
     15,         140.,           0., 0.0500000007
     16,         135.,           0., 0.0500000007
     17,         130.,           0., 0.0500000007
     18,         125.,           0., 0.0500000007
     19,         120.,           0., 0.0500000007
     20,         115.,           0., 0.0500000007
** ... 900 like lines cut
*Element, type=S3
 1, 602, 588, 516
 2, 824, 784, 782
 3, 919, 830, 918
 4, 858, 856, 843
 5, 840, 855, 838
 6, 855, 915, 839
 7, 883, 884, 876
 8, 915, 857, 842
 9, 796, 920, 797
*Element, type=S4R
 10, 285, 198, 326, 328
 11, 161, 168, 198, 285
 12,  24,  23, 113, 108
 13,  27,  26, 115, 109
 14,  60, 157, 189,  61
 15,  31,  30, 118, 110
 16, 167,  54,  53, 190
 17, 171, 181, 271, 199
 18,  38,  37, 124, 212
 19, 125, 200,  40,  39
 20,  42,  41, 201, 891
 21,  14,   1,  78, 169
 22, 176, 202, 273, 169
 23, 334, 273, 202, 541
 24,  12, 174, 166,  76
 25, 203, 204,  18,  17
 26,  20,  19, 205, 111
 27,  70, 165, 185,  71
 28, 111, 206,  21,  20
 29,  23,  22, 112, 113
** ... 841 like lines cut
*Nset, nset=_PickedSet4, internal, generate
   1,  920,    1
*Elset, elset=_PickedSet4, internal, generate
   1,  870,    1
** Section: Section-Layer-3
*Shell Section, elset=_PickedSet4, material=Si-Same
0.1, 5
*End Instance
**  
*Instance, name=Layer4-1, part=Layer4
          0.,           0., 0.881134900346109
*Node
      1,         150.,           0., 0.00286777224
      2,           0.,           0., 0.00286777224
      3,   19.9930439,   148.661621, 0.00286777224
      4,   44.4413376,   143.265381, 0.00286777224
      5,    63.140213,   136.063644, 0.00286777224
      6,   80.7123566,   126.433838, 0.00286777224
      7,   96.8441772,   114.547829, 0.00286777224
      8,   114.547829,   96.8441772, 0.00286777224
      9,   126.433838,   80.7123566, 0.00286777224
     10,   136.063644,    63.140213, 0.00286777224
     11,   143.265381,   44.4413376, 0.00286777224
     12,   148.661621,   19.9930439, 0.00286777224
     13,           0.,         150., 0.00286777224
     14,         145.,           0., 0.00286777224
     15,         140.,           0., 0.00286777224
     16,         135.,           0., 0.00286777224
     17,         130.,           0., 0.00286777224
     18,         125.,           0., 0.00286777224
     19,         120.,           0., 0.00286777224
     20,         115.,           0., 0.00286777224
** ... 900 like lines cut
*Element, type=S3
 1, 602, 588, 516
 2, 824, 784, 782
 3, 919, 830, 918
 4, 858, 856, 843
 5, 840, 855, 838
 6, 855, 915, 839
 7, 883, 884, 876
 8, 915, 857, 842
 9, 796, 920, 797
*Element, type=S4R
 10, 285, 198, 326, 328
 11, 161, 168, 198, 285
 12,  24,  23, 113, 108
 13,  27,  26, 115, 109
 14,  60, 157, 189,  61
 15,  31,  30, 118, 110
 16, 167,  54,  53, 190
 17, 171, 181, 271, 199
 18,  38,  37, 124, 212
 19, 125, 200,  40,  39
 20,  42,  41, 201, 891
 21,  14,   1,  78, 169
 22, 176, 202, 273, 169
 23, 334, 273, 202, 541
 24,  12, 174, 166,  76
 25, 203, 204,  18,  17
 26,  20,  19, 205, 111
 27,  70, 165, 185,  71
 28, 111, 206,  21,  20
 29,  23,  22, 112, 113
** ... 841 like lines cut
*Nset, nset=_PickedSet4, internal, generate
   1,  920,    1
*Elset, elset=_PickedSet4, internal, generate
   1,  870,    1
** Section: Section-Layer-4
*Shell Section, elset=_PickedSet4, material=Ubump-bottom_Mix
0.00573554, 5
*End Instance
**  
*Nset, nset=_PickedSet19, internal, instance=Layer1-1
  1,  2, 14, 15, 16, 17, 18, 19, 20, 21, 22, 23, 24, 25, 26, 27
 28, 29, 30, 31, 32, 33, 34, 35, 36, 37, 38, 39, 40, 41, 42
*Elset, elset=_PickedSet19, internal, instance=Layer1-1
  12,  13,  15,  18,  19,  20,  21,  25,  26,  28,  29,  31,  34,  35,  39,  40
  41,  42,  43,  45,  79, 109, 110, 113, 118, 170, 175, 192, 195, 197
*Nset, nset=_PickedSet20, internal, instance=Layer2-1
  1,  2, 14, 15, 16, 17, 18, 19, 20, 21, 22, 23, 24, 25, 26, 27
 28, 29, 30, 31, 32, 33, 34, 35, 36, 37, 38, 39, 40, 41, 42
*Elset, elset=_PickedSet20, internal, instance=Layer2-1
  12,  13,  15,  18,  19,  20,  21,  25,  26,  28,  29,  31,  34,  35,  39,  40
  41,  42,  43,  45,  79, 109, 110, 113, 118, 170, 175, 192, 195, 197
*Nset, nset=_PickedSet21, internal, instance=Layer3-1
  1,  2, 14, 15, 16, 17, 18, 19, 20, 21, 22, 23, 24, 25, 26, 27
 28, 29, 30, 31, 32, 33, 34, 35, 36, 37, 38, 39, 40, 41, 42
*Elset, elset=_PickedSet21, internal, instance=Layer3-1
  12,  13,  15,  18,  19,  20,  21,  25,  26,  28,  29,  31,  34,  35,  39,  40
  41,  42,  43,  45,  79, 109, 110, 113, 118, 170, 175, 192, 195, 197
*Nset, nset=_PickedSet22, internal, instance=Layer4-1
  1,  2, 14, 15, 16, 17, 18, 19, 20, 21, 22, 23, 24, 25, 26, 27
 28, 29, 30, 31, 32, 33, 34, 35, 36, 37, 38, 39, 40, 41, 42
*Elset, elset=_PickedSet22, internal, instance=Layer4-1
  12,  13,  15,  18,  19,  20,  21,  25,  26,  28,  29,  31,  34,  35,  39,  40
  41,  42,  43,  45,  79, 109, 110, 113, 118, 170, 175, 192, 195, 197
*Nset, nset=_PickedSet23, internal, instance=Layer1-1
   2,  13,  79,  80,  81,  82,  83,  84,  85,  86,  87,  88,  89,  90,  91,  92
  93,  94,  95,  96,  97,  98,  99, 100, 101, 102, 103, 104, 105, 106, 107
*Elset, elset=_PickedSet23, internal, instance=Layer1-1
  37,  47,  79,  85,  86,  88,  89,  90,  91,  92,  93,  94,  95,  96,  97,  98
  99, 100, 101, 102, 103, 104, 115, 116, 119, 120, 121, 122, 134, 145
*Nset, nset=_PickedSet24, internal, instance=Layer2-1
   2,  13,  79,  80,  81,  82,  83,  84,  85,  86,  87,  88,  89,  90,  91,  92
  93,  94,  95,  96,  97,  98,  99, 100, 101, 102, 103, 104, 105, 106, 107
*Elset, elset=_PickedSet24, internal, instance=Layer2-1
  37,  47,  79,  85,  86,  88,  89,  90,  91,  92,  93,  94,  95,  96,  97,  98
  99, 100, 101, 102, 103, 104, 115, 116, 119, 120, 121, 122, 134, 145
*Nset, nset=_PickedSet25, internal, instance=Layer3-1
   2,  13,  79,  80,  81,  82,  83,  84,  85,  86,  87,  88,  89,  90,  91,  92
  93,  94,  95,  96,  97,  98,  99, 100, 101, 102, 103, 104, 105, 106, 107
*Elset, elset=_PickedSet25, internal, instance=Layer3-1
  37,  47,  79,  85,  86,  88,  89,  90,  91,  92,  93,  94,  95,  96,  97,  98
  99, 100, 101, 102, 103, 104, 115, 116, 119, 120, 121, 122, 134, 145
*Nset, nset=_PickedSet26, internal, instance=Layer4-1
   2,  13,  79,  80,  81,  82,  83,  84,  85,  86,  87,  88,  89,  90,  91,  92
  93,  94,  95,  96,  97,  98,  99, 100, 101, 102, 103, 104, 105, 106, 107
*Elset, elset=_PickedSet26, internal, instance=Layer4-1
  37,  47,  79,  85,  86,  88,  89,  90,  91,  92,  93,  94,  95,  96,  97,  98
  99, 100, 101, 102, 103, 104, 115, 116, 119, 120, 121, 122, 134, 145
*Nset, nset=_PickedSet27, internal, instance=Layer1-1
 2,
*Nset, nset=_PickedSet28, internal, instance=Layer1-1, generate
   1,  920,    1
*Elset, elset=_PickedSet28, internal, instance=Layer1-1, generate
   1,  870,    1
*Nset, nset=_PickedSet29, internal, instance=Layer2-1, generate
   1,  920,    1
*Elset, elset=_PickedSet29, internal, instance=Layer2-1, generate
   1,  870,    1
*Nset, nset=_PickedSet30, internal, instance=Layer3-1, generate
   1,  920,    1
*Elset, elset=_PickedSet30, internal, instance=Layer3-1, generate
   1,  870,    1
*Nset, nset=_PickedSet31, internal, instance=Layer4-1, generate
   1,  920,    1
*Elset, elset=_PickedSet31, internal, instance=Layer4-1, generate
   1,  870,    1
*Elset, elset=__PickedSurf13_SPOS, internal, instance=Layer1-1, generate
   1,  870,    1
*Surface, type=ELEMENT, name=_PickedSurf13, internal
__PickedSurf13_SPOS, SPOS
*Elset, elset=__PickedSurf14_SNEG, internal, instance=Layer2-1, generate
   1,  870,    1
*Surface, type=ELEMENT, name=_PickedSurf14, internal
__PickedSurf14_SNEG, SNEG
*Elset, elset=__PickedSurf15_SPOS, internal, instance=Layer2-1, generate
   1,  870,    1
*Surface, type=ELEMENT, name=_PickedSurf15, internal
__PickedSurf15_SPOS, SPOS
*Elset, elset=__PickedSurf16_SNEG, internal, instance=Layer3-1, generate
   1,  870,    1
*Surface, type=ELEMENT, name=_PickedSurf16, internal
__PickedSurf16_SNEG, SNEG
*Elset, elset=__PickedSurf17_SPOS, internal, instance=Layer3-1, generate
   1,  870,    1
*Surface, type=ELEMENT, name=_PickedSurf17, internal
__PickedSurf17_SPOS, SPOS
*Elset, elset=__PickedSurf18_SNEG, internal, instance=Layer4-1, generate
   1,  870,    1
*Surface, type=ELEMENT, name=_PickedSurf18, internal
__PickedSurf18_SNEG, SNEG
** Constraint: Constraint-1
*Tie, name=Constraint-1, adjust=yes
_PickedSurf14, _PickedSurf13
** Constraint: Constraint-2
*Tie, name=Constraint-2, adjust=yes
_PickedSurf16, _PickedSurf15
** Constraint: Constraint-3
*Tie, name=Constraint-3, adjust=yes
_PickedSurf18, _PickedSurf17
*End Assembly
** 
** MATERIALS
** 
*Material, name=Si-Same
*Density
 2.329e-09,
*Elastic
170000., 0.278
*Expansion
 2.813e-06, 25.
 3.107e-06,150.
*Material, name=Ubump-bottom_Mix
*Elastic, type=ENGINEERING CONSTANTS
 2981.51,  2981.51,  6443.18, 0.292678, 0.137816, 0.137816,  1153.23,   1109.5
   1109.5,
*Expansion, type=ORTHO
 5.8998e-05,  5.8998e-05, 2.83323e-05
*Material, name=Ubump-top_Mix
*Elastic, type=ENGINEERING CONSTANTS
 3745.32,   3745.32,   19440.7,  0.267059, 0.0516224, 0.0516224,   1477.96,   1393.38
   1393.38,
*Expansion, type=ORTHO
 5.25646e-05, 5.25646e-05, 1.89236e-05
** 
** PHYSICAL CONSTANTS
** 
*Physical Constants, absolute zero=-272.15
** 
** BOUNDARY CONDITIONS
** 
** Name: BC-Fix_middle_point Type: /
*Boundary
_PickedSet27, 3, 3
** Name: BC-X_Layer-1 Type: //
*Boundary
_PickedSet23, XSYMM
** Name: BC-X_Layer-2 Type: //
*Boundary
_PickedSet24, XSYMM
** Name: BC-X_Layer-3 Type: //
*Boundary
_PickedSet25, XSYMM
** Name: BC-X_Layer-4 Type: //
*Boundary
_PickedSet26, XSYMM
** Name: BC-Y_Layer-1 Type: //
*Boundary
_PickedSet19, YSYMM
** Name: BC-Y_Layer-2 Type: //
*Boundary
_PickedSet20, YSYMM
** Name: BC-Y_Layer-3 Type: //
*Boundary
_PickedSet21, YSYMM
** Name: BC-Y_Layer-4 Type: //
*Boundary
_PickedSet22, YSYMM
** 
** PREDEFINED FIELDS
** 
** Name: Predefined-Temp_Layer1   Type: Temperature
*Initial Conditions, type=TEMPERATURE
_PickedSet28, 200.
** Name: Predefined-Temp_Layer2   Type: Temperature
*Initial Conditions, type=TEMPERATURE
_PickedSet29, 200.
** Name: Predefined-Temp_Layer3   Type: Temperature
*Initial Conditions, type=TEMPERATURE
_PickedSet30, 200.
** Name: Predefined-Temp_Layer4   Type: Temperature
*Initial Conditions, type=TEMPERATURE
_PickedSet31, 200.
** ----------------------------------------------------------------
** 
** STEP: Contact
** 
*Step, name=Contact, nlgeom=YES, inc=1000
*Static
0.01, 0.1, 1e-06, 0.1
** 
** OUTPUT REQUESTS
** 
*Restart, write, frequency=0
** 
** FIELD OUTPUT: F-Output-1
** 
*Output, field, variable=PRESELECT
** 
** HISTORY OUTPUT: H-Output-1
** 
*Output, history, variable=PRESELECT
*End Step
** ----------------------------------------------------------------
** 
** STEP: T_down
** 
*Step, name=T_down, nlgeom=YES, inc=1000
*Static
0.01, 1., 1e-06, 1.
** 
** PREDEFINED FIELDS
** 
** Name: Predefined-Temp_Layer1   Type: Temperature
*Temperature
_PickedSet28, 25.
** Name: Predefined-Temp_Layer2   Type: Temperature
*Temperature
_PickedSet29, 25.
** Name: Predefined-Temp_Layer3   Type: Temperature
*Temperature
_PickedSet30, 25.
** Name: Predefined-Temp_Layer4   Type: Temperature
*Temperature
_PickedSet31, 25.
** 
** OUTPUT REQUESTS
** 
*Restart, write, frequency=0
** 
** FIELD OUTPUT: F-Output-1
** 
*Output, field, variable=PRESELECT
** 
** HISTORY OUTPUT: H-Output-1
** 
*Output, history, variable=PRESELECT
*End Step
